#	Name:			1a28
#	Creating user name:	xfliu
#	Creation time:		Tue Apr 22 09:46:00 2008

#	Modifying user name:	xfliu
#	Modification time:	Tue Apr 22 09:46:44 2008

@<TRIPOS>MOLECULE
1a28
   53    56     1     0     1
SMALL
GASTEIGER

@<TRIPOS>ATOM
      1 H1         36.8698   35.6874   40.3773 H         1 STR2        0.0278 
      2 H2         35.6470   34.5538   39.6955 H         1 STR2        0.0278 
      3 H3         37.1891   33.9793   37.8176 H         1 STR2        0.0345 
      4 H4         36.9810   35.7671   37.8912 H         1 STR2        0.0345 
      5 H5         40.6643   34.3573   39.6933 H         1 STR2        0.0652 
      6 H6         39.6203   31.7195   41.3388 H         1 STR2        0.0310 
      7 H7         40.7543   33.1000   41.5699 H         1 STR2        0.0310 
      8 H8         39.6451   32.2344   43.6901 H         1 STR2        0.0271 
      9 H9         39.4268   33.9944   43.3747 H         1 STR2        0.0271 
     10 H10        37.3390   31.7744   42.9216 H         1 STR2        0.0307 
     11 H11        37.2737   34.8259   42.4424 H         1 STR2        0.0312 
     12 H12        34.9489   34.6038   41.7341 H         1 STR2        0.0268 
     13 H13        34.9944   32.8311   42.0507 H         1 STR2        0.0268 
     14 H14        35.3087   35.0630   44.1448 H         1 STR2        0.0271 
     15 H15        33.8757   33.9949   43.9202 H         1 STR2        0.0271 
     16 H16        37.4498   34.2064   44.7425 H         1 STR2        0.0309 
     17 H17        37.7578   31.2712   45.5404 H         1 STR2        0.0268 
     18 H18        38.7731   32.6862   46.0008 H         1 STR2        0.0268 
     19 H19        36.4533   31.7501   47.4459 H         1 STR2        0.0272 
     20 H20        37.2370   33.3579   47.6600 H         1 STR2        0.0272 
     21 H21        35.6718   34.4505   46.3831 H         1 STR2        0.0383 
     22 H22        35.1218   31.3586   43.3954 H         1 STR2        0.0235 
     23 H23        35.6586   30.8158   45.0156 H         1 STR2        0.0235 
     24 H24        34.0009   31.4824   44.7868 H         1 STR2        0.0235 
     25 H25        37.1596   32.1085   39.0611 H         1 STR2        0.0238 
     26 H26        37.3125   31.3912   40.6951 H         1 STR2        0.0238 
     27 H27        35.7559   32.1327   40.1733 H         1 STR2        0.0238 
     28 H28        32.1831   33.6925   47.3212 H         1 STR2        0.0306 
     29 H29        33.3377   35.0420   47.0897 H         1 STR2        0.0306 
     30 H30        32.8056   34.0533   45.6810 H         1 STR2        0.0306 
     31 C1         36.7220   34.7500   39.8210 C.3       1 STR2       -0.0367 
     32 C2         37.3830   34.8850   38.4110 C.3       1 STR2        0.0107 
     33 C3         38.8780   35.0520   38.5810 C.2       1 STR2        0.1561 
     34 O3         39.5010   35.7610   37.7780 O.2       1 STR2       -0.2927 
     35 C4         39.5770   34.3190   39.6470 C.2       1 STR2       -0.0194 
     36 C5         38.9110   33.6080   40.5590 C.2       1 STR2       -0.0601 
     37 C6         39.7000   32.7870   41.5920 C.3       1 STR2       -0.0305 
     38 C7         39.1710   32.9800   43.0350 C.3       1 STR2       -0.0459 
     39 C8         37.6270   32.8100   43.1550 C.3       1 STR2       -0.0338 
     40 C9         36.9320   33.8170   42.1680 C.3       1 STR2       -0.0288 
     41 C10        37.3290   33.5900   40.6610 C.3       1 STR2       -0.0072 
     42 C11        35.3900   33.8110   42.3560 C.3       1 STR2       -0.0486 
     43 C12        34.9700   34.0640   43.8330 C.3       1 STR2       -0.0464 
     44 C13        35.6010   33.0210   44.7670 C.3       1 STR2       -0.0195 
     45 C14        37.1640   33.1570   44.5780 C.3       1 STR2       -0.0319 
     46 C15        37.7550   32.3500   45.7550 C.3       1 STR2       -0.0488 
     47 C16        36.7670   32.6740   46.9380 C.3       1 STR2       -0.0427 
     48 C17        35.5290   33.3640   46.2880 C.3       1 STR2        0.0229 
     49 C18        35.0530   31.5580   44.4750 C.3       1 STR2       -0.0587 
     50 C19        36.8520   32.2030   40.1130 C.3       1 STR2       -0.0556 
     51 C20        34.1780   33.0980   46.9850 C.2       1 STR2        0.1339 
     52 O20        34.0280   32.1470   47.7210 O.2       1 STR2       -0.2974 
     53 C21        33.0600   34.0330   46.7510 C.3       1 STR2       -0.0058 
@<TRIPOS>BOND
     1   31    1 1    
     2   31    2 1    
     3   32    3 1    
     4   32    4 1    
     5   35    5 1    
     6   37    6 1    
     7   37    7 1    
     8   38    8 1    
     9   38    9 1    
    10   39   10 1    
    11   40   11 1    
    12   42   12 1    
    13   42   13 1    
    14   43   14 1    
    15   43   15 1    
    16   45   16 1    
    17   46   17 1    
    18   46   18 1    
    19   47   19 1    
    20   47   20 1    
    21   48   21 1    
    22   49   22 1    
    23   49   23 1    
    24   49   24 1    
    25   50   25 1    
    26   50   26 1    
    27   50   27 1    
    28   53   28 1    
    29   53   29 1    
    30   53   30 1    
    31   31   32 1    
    32   41   31 1    
    33   32   33 1    
    34   33   34 2    
    35   35   33 1    
    36   36   35 2    
    37   37   36 1    
    38   41   36 1    
    39   38   37 1    
    40   39   38 1    
    41   39   40 1    
    42   45   39 1    
    43   40   41 1    
    44   42   40 1    
    45   41   50 1    
    46   43   42 1    
    47   44   43 1    
    48   44   45 1    
    49   48   44 1    
    50   44   49 1    
    51   46   45 1    
    52   47   46 1    
    53   48   47 1    
    54   51   48 1    
    55   51   52 2    
    56   51   53 1    
@<TRIPOS>DICT
0.004