@<TRIPOS>MOLECULE
1hnn
 26 27 0 0 0
SMALL
GASTEIGER
Energy = 0

@<TRIPOS>ATOM
      1 S1         -0.0286   -0.0589   -0.0581 S.O2    1  <1>         0.0560
      2 O1         -0.5823   -0.7286    1.2926 O.2     1  <1>        -0.1533
      3 O2         -0.5119   -0.9442   -1.3075 O.2     1  <1>        -0.1533
      4 N1          5.9203    2.5509    0.6789 N.3     1  <1>        -0.3117
      5 N2         -0.6778    1.4809   -0.2037 N.3     1  <1>        -0.2035
      6 C1          4.5800    0.0358    0.0644 C.ar    1  <1>        -0.0417
      7 C2          3.8492    1.2505    0.0584 C.ar    1  <1>        -0.0285
      8 C3          6.0632    0.0754    0.0632 C.3     1  <1>        -0.0148
      9 C4          4.5684    2.5522    0.0696 C.3     1  <1>         0.0216
     10 C5          6.5908    1.2517    0.9190 C.3     1  <1>         0.0002
     11 C6          2.4373    1.2160    0.0130 C.ar    1  <1>        -0.0307
     12 C7          1.7447   -0.0114   -0.0098 C.ar    1  <1>         0.1053
     13 C8          3.8817   -1.1927    0.0417 C.ar    1  <1>        -0.0564
     14 C9          2.4758   -1.2157    0.0095 C.ar    1  <1>        -0.0351
     15 H1          6.4870   -0.8549    0.4536 H       1  <1>         0.0326
     16 H2          6.4021    0.1968   -0.9695 H       1  <1>         0.0326
     17 H3          3.9833    3.3066    0.6014 H       1  <1>         0.0474
     18 H4          4.6771    2.8855   -0.9634 H       1  <1>         0.0474
     19 H5          6.4836    1.0032    1.9765 H       1  <1>         0.0427
     20 H6          7.6529    1.3904    0.7155 H       1  <1>         0.0427
     21 H7          5.8443    3.0160    1.5874 H       1  <1>         0.1223
     22 H8          1.9135    2.0935   -0.0031 H       1  <1>         0.0640
     23 H9          4.3909   -2.0801    0.0401 H       1  <1>         0.0621
     24 H10         1.9899   -2.1173   -0.0052 H       1  <1>         0.0637
     25 H11        -1.5122    1.6755    0.1658 H       1  <1>         0.1442
     26 H12        -0.2094    2.1421   -0.6690 H       1  <1>         0.1442
@<TRIPOS>BOND
     1     1     2    2
     2     1     3    2
     3     1     5    1
     4     1    12    1
     5     4     9    1
     6     4    10    1
     7     4    21    1
     8     5    25    1
     9     5    26    1
    10     6     7   ar
    11     6     8    1
    12     6    13   ar
    13     7     9    1
    14     7    11   ar
    15     8    10    1
    16     8    15    1
    17     8    16    1
    18     9    17    1
    19     9    18    1
    20    10    19    1
    21    10    20    1
    22    11    12   ar
    23    11    22    1
    24    12    14   ar
    25    13    14   ar
    26    13    23    1
    27    14    24    1