@<TRIPOS>MOLECULE
3ert
 58 60 0 0 0
SMALL
GASTEIGER
Energy = 0

@<TRIPOS>ATOM
      1 O1         -2.4942    2.0798   -2.4677 O.3     1  <1>        -0.4907
      2 O2         -8.7706   -4.3639   -2.1628 O.3     1  <1>        -0.5068
      3 N1         -2.8066    5.7653   -2.7129 N.3     1  <1>        -0.3051
      4 C1         -3.5991   -3.2327   -3.5486 C.2     1  <1>        -0.0070
      5 C2         -2.6923   -4.0673   -4.1352 C.2     1  <1>        -0.0322
      6 C3         -3.3342   -1.8823   -3.2712 C.ar    1  <1>        -0.0168
      7 C4         -2.9199   -5.5137   -4.3487 C.3     1  <1>        -0.0294
      8 C5         -4.8913   -3.6259   -3.1966 C.ar    1  <1>        -0.0168
      9 C6         -1.4609   -3.5716   -4.5990 C.ar    1  <1>        -0.0213
     10 C7         -4.0485   -0.8643   -3.9460 C.ar    1  <1>        -0.0506
     11 C8         -2.3670   -1.5070   -2.3066 C.ar    1  <1>        -0.0506
     12 C9         -2.8948   -5.9472   -5.8365 C.3     1  <1>        -0.0612
     13 C10        -2.8081    0.8665   -2.7296 C.ar    1  <1>         0.1206
     14 C11        -5.2611   -3.7584   -1.8387 C.ar    1  <1>        -0.0506
     15 C12        -5.8722   -3.8316   -4.1965 C.ar    1  <1>        -0.0506
     16 C13        -3.7849    0.4889   -3.6798 C.ar    1  <1>        -0.0194
     17 C14        -2.1150   -0.1480   -2.0356 C.ar    1  <1>        -0.0194
     18 C15        -1.4313   -2.6234   -5.6522 C.ar    1  <1>        -0.0543
     19 C16        -0.2310   -4.0060   -4.0503 C.ar    1  <1>        -0.0543
     20 C17        -2.1657    4.4379   -2.4365 C.3     1  <1>         0.0325
     21 C18        -2.9965    3.2331   -2.9385 C.3     1  <1>         0.1022
     22 C19        -6.5919   -4.0399   -1.4858 C.ar    1  <1>        -0.0196
     23 C20        -7.2073   -4.1024   -3.8437 C.ar    1  <1>        -0.0196
     24 C21        -0.2126   -2.1175   -6.1361 C.ar    1  <1>        -0.0612
     25 C22         0.9921   -3.5213   -4.5527 C.ar    1  <1>        -0.0612
     26 C23        -7.5717   -4.1822   -2.4859 C.ar    1  <1>         0.1169
     27 C24         1.0000   -2.5804   -5.5970 C.ar    1  <1>        -0.0617
     28 C25        -2.1637    6.8833   -1.9605 C.3     1  <1>        -0.0129
     29 C26        -2.9664    6.0864   -4.1630 C.3     1  <1>        -0.0129
     30 H1         -3.8713   -5.8534   -3.9358 H       1  <1>         0.0311
     31 H2         -2.1529   -6.0831   -3.8155 H       1  <1>         0.0311
     32 H3         -4.7643   -1.1003   -4.6391 H       1  <1>         0.0625
     33 H4         -1.8431   -2.2205   -1.7894 H       1  <1>         0.0625
     34 H5         -3.1221   -7.0125   -5.9131 H       1  <1>         0.0233
     35 H6         -1.9091   -5.7790   -6.2743 H       1  <1>         0.0233
     36 H7         -3.6402   -5.3942   -6.4113 H       1  <1>         0.0233
     37 H8         -4.5661   -3.6409   -1.0976 H       1  <1>         0.0625
     38 H9         -5.6238   -3.7646   -5.1871 H       1  <1>         0.0625
     39 H10        -4.3080    1.1964   -4.1954 H       1  <1>         0.0654
     40 H11        -1.4209    0.1006   -1.3253 H       1  <1>         0.0654
     41 H12        -2.3029   -2.2914   -6.0770 H       1  <1>         0.0624
     42 H13        -0.2190   -4.6762   -3.2802 H       1  <1>         0.0624
     43 H14        -2.0475    4.3177   -1.3561 H       1  <1>         0.0460
     44 H15        -1.1690    4.3975   -2.8863 H       1  <1>         0.0460
     45 H16        -2.9715    3.2205   -4.0311 H       1  <1>         0.0709
     46 H17        -4.0320    3.3473   -2.6067 H       1  <1>         0.0709
     47 H18        -6.8474   -4.1303   -0.5004 H       1  <1>         0.0654
     48 H19        -7.9134   -4.2269   -4.5753 H       1  <1>         0.0654
     49 H20        -0.2115   -1.4179   -6.8808 H       1  <1>         0.0618
     50 H21         1.8760   -3.8502   -4.1549 H       1  <1>         0.0618
     51 H22         1.8871   -2.2337   -5.9636 H       1  <1>         0.0618
     52 H23        -2.7139    7.8144   -2.1112 H       1  <1>         0.0391
     53 H24        -2.1715    6.6776   -0.8888 H       1  <1>         0.0391
     54 H25        -1.1299    7.0313   -2.2819 H       1  <1>         0.0391
     55 H26        -3.4175    7.0713   -4.2982 H       1  <1>         0.0391
     56 H27        -3.6343    5.3713   -4.6420 H       1  <1>         0.0391
     57 H28        -2.0036    6.0701   -4.6777 H       1  <1>         0.0391
     58 H29        -9.0053   -4.3692   -1.3135 H       1  <1>         0.2921
@<TRIPOS>BOND
     1     1    13    1
     2     1    21    1
     3     2    26    1
     4     2    58    1
     5     3    20    1
     6     3    28    1
     7     3    29    1
     8     4     5    2
     9     4     6    1
    10     4     8    1
    11     5     7    1
    12     5     9    1
    13     6    10   ar
    14     6    11   ar
    15     7    12    1
    16     7    30    1
    17     7    31    1
    18     8    14   ar
    19     8    15   ar
    20     9    18   ar
    21     9    19   ar
    22    10    16   ar
    23    10    32    1
    24    11    17   ar
    25    11    33    1
    26    12    34    1
    27    12    35    1
    28    12    36    1
    29    13    16   ar
    30    13    17   ar
    31    14    22   ar
    32    14    37    1
    33    15    23   ar
    34    15    38    1
    35    16    39    1
    36    17    40    1
    37    18    24   ar
    38    18    41    1
    39    19    25   ar
    40    19    42    1
    41    20    21    1
    42    20    43    1
    43    20    44    1
    44    21    45    1
    45    21    46    1
    46    22    26   ar
    47    22    47    1
    48    23    26   ar
    49    23    48    1
    50    24    27   ar
    51    24    49    1
    52    25    27   ar
    53    25    50    1
    54    27    51    1
    55    28    52    1
    56    28    53    1
    57    28    54    1
    58    29    55    1
    59    29    56    1
    60    29    57    1

