@<TRIPOS>MOLECULE
1a28
53  56  1  0  0
SMALL
FORMAL_CHARGES
@<TRIPOS>ATOM
    1 C1         1.2465    -0.7270     0.4130 C.3        1 ****  0
    2 C2         1.5410     0.7499     0.1745 C.3        1 ****  0
    3 C3         0.2880     1.5203     0.4704 C.2        1 ****  0
    4 O1         0.3608     2.7047     0.8072 O.2        1 ****  0
    5 C4        -1.0270     0.9161     0.2025 C.2        1 ****  0
    6 C5        -1.1587    -0.3531    -0.1808 C.2        1 ****  0
    7 C6        -2.4815    -0.8641    -0.6037 C.3        1 ****  0
    8 C7        -2.3791    -1.0383    -2.1400 C.3        1 ****  0
    9 C8        -1.2043    -2.0184    -2.5012 C.3        1 ****  0
   10 C9        -0.6386    -0.7436    -1.7438 C.3        1 ****  0
   11 C10        0.0070    -1.2599    -0.3673 C.3        1 ****  0
   12 C11        0.5100    -0.1464    -2.6914 C.3        1 ****  0
   13 C12       -3.1975    -1.8983    -6.1335 C.3        1 ****  0
   14 C13       -1.8815    -1.4324    -5.4827 C.3        1 ****  0
   15 C14       -1.0696    -2.2071    -4.0502 C.3        1 ****  0
   16 C15        0.0201    -3.2603    -4.4000 C.3        1 ****  0
   17 C16        0.5589    -2.8312    -5.8192 C.3        1 ****  0
   18 C17       -0.8424    -2.2760    -5.5866 C.3        1 ****  0
   19 C18       -1.5540     0.2204    -4.9392 C.3        1 ****  0
   20 C19       -0.3046    -2.6358     0.2656 C.3        1 ****  0
   21 C20       -1.5680    -1.9498    -6.9704 C.2        1 ****  0
   22 O2        -2.0645    -1.1048    -7.7254 O.2        1 ****  0
   23 C21       -2.1043    -3.3667    -7.0321 C.3        1 ****  0
   24 H1         2.1231    -1.3139     0.1312 H          1 ****  0
   25 H2         1.0916    -0.8907     1.4785 H          1 ****  0
   26 H3         1.8200     0.8997    -0.8396 H          1 ****  0
   27 H4         2.3194     1.0694     0.8277 H          1 ****  0
   28 H5        -1.9057     1.5155     0.3194 H          1 ****  0
   29 H6        -3.2282    -0.1585    -0.3757 H          1 ****  0
   30 H7        -2.6663    -1.7992    -0.1510 H          1 ****  0
   31 H8        -3.3046    -1.4368    -2.5170 H          1 ****  0
   32 H9        -2.1991    -0.0842    -2.5966 H          1 ****  0
   33 H10       -1.4426    -2.9898    -2.0563 H          1 ****  0
   34 H11       -1.4477    -0.0249    -1.5619 H          1 ****  0
   35 H12        1.3910     0.2881    -2.2824 H          1 ****  0
   36 H13       -0.3083     0.5338    -2.6139 H          1 ****  0
   37 H14        1.1177     0.3658    -4.7000 H          1 ****  0
   38 H15        1.4778    -1.2850    -4.2493 H          1 ****  0
   39 H16       -2.0198    -2.5371    -4.4707 H          1 ****  0
   40 H17        0.8006    -3.2146    -3.6943 H          1 ****  0
   41 H18       -0.4124    -4.2157    -4.4587 H          1 ****  0
   42 H19        0.3934    -3.6059    -6.5128 H          1 ****  0
   43 H20        1.5801    -2.5726    -5.7500 H          1 ****  0
   44 H21       -1.4119    -2.9701    -4.9534 H          1 ****  0
   45 H22       -1.1138     0.9932    -5.5355 H          1 ****  0
   46 H23       -1.7548     0.6018    -3.9590 H          1 ****  0
   47 H24       -2.4647    -0.1078    -5.3910 H          1 ****  0
   48 H25       -0.5637    -2.5499     1.2907 H          1 ****  0
   49 H26        0.4949    -3.3210     0.1356 H          1 ****  0
   50 H27       -1.1875    -3.0575    -0.2621 H          1 ****  0
   51 H28       -2.1639    -3.6460    -5.9662 H          1 ****  0
   52 H29       -1.2399    -3.9325    -7.4199 H          1 ****  0
   53 H30       -2.9253    -3.4797    -7.5316 H          1 ****  0
@<TRIPOS>BOND
    1     1     2 1
    2     1    11 1
    3     1    24 1
    4     1    25 1
    5     2     3 1
    6     2    26 1
    7     2    27 1
    8     3     4 2
    9     3     5 1
   10     5     6 2
   11     5    28 1
   12     6     7 1
   13     6    11 1
   14     7     8 1
   15     7    29 1
   16     7    30 1
   17     8    31 1
   18     8    32 1
   19     9     8 1
   20     9    10 1
   21     9    15 1
   22     9    33 1
   23    10    11 1
   24    10    12 1
   25    10    34 1
   26    11    20 1
   27    12    13 1
   28    12    35 1
   29    12    36 1
   30    13    14 1
   31    13    37 1
   32    13    38 1
   33    14    15 1
   34    14    18 1
   35    14    19 1
   36    15    16 1
   37    15    39 1
   38    16    17 1
   39    16    40 1
   40    16    41 1
   41    17    18 1
   42    17    42 1
   43    17    43 1
   44    18    21 1
   45    18    44 1
   46    19    45 1
   47    19    46 1
   48    19    47 1
   49    20    48 1
   50    20    49 1
   51    20    50 1
   52    21    22 2
   53    21    23 1
   54    23    51 1
   55    23    52 1
   56    23    53 1
@<TRIPOS>SUBSTRUCTURE
1   ****   1
@<TRIPOS>MOLECULE
1a42
44  45  1  0  0
SMALL
FORMAL_CHARGES
@<TRIPOS>ATOM
    1 C1        -1.2776     3.2160     0.7311 C.ar       1 ****  0
    2 C2         1.3010    -0.7233     0.2746 C.3        1 ****  0
    3 C3         1.2742     0.7139    -0.3447 C.3        1 ****  0
    4 C4         0.2948    -2.9396    -0.3131 C.3        1 ****  0
    5 C5         1.7723    -3.3426    -0.1496 C.3        1 ****  0
    6 C6         3.2874    -5.1107    -0.2079 C.3        1 ****  0
    7 C7         3.4474    -6.6243    -0.4353 C.3        1 ****  0
    8 O1        -0.4681     5.7236     1.2494 O.2        1 ****  0
    9 O2        -2.3829     4.8397     2.5556 O.2        1 ****  0
   10 N1        -2.7996     5.4918     0.0434 N.am       1 ****  -1
   11 S1        -1.7136     4.8596     1.1943 S.O2       1 ****  0
   12 C8         0.0180     2.8253     0.3931 C.ar       1 ****  0
   13 C9         0.0469     1.4700     0.0732 C.ar       1 ****  0
   14 C10       -1.1928     0.8647     0.1669 C.ar       1 ****  0
   15 S2        -2.3797     1.9473     0.6478 S.3        1 ****  0
   16 S3        -1.4076    -0.8252    -0.1829 S.O2       1 ****  0
   17 O3        -2.3348    -1.4651     0.8346 O.2        1 ****  0
   18 O4        -1.9875    -1.0050    -1.5745 O.2        1 ****  0
   19 N2         0.1424    -1.5277    -0.1021 N.am       1 ****  0
   20 N3         2.4777     1.4577     0.0677 N.4        1 ****  1
   21 O5         1.9142    -4.7470    -0.3617 O.3        1 ****  0
   22 C11        2.5114     1.5885     1.5339 C.3        1 ****  0
   23 C12        3.7725     2.3670     1.9513 C.3        1 ****  0
   24 H1         1.3360    -0.6419     1.3710 H          1 ****  0
   25 H2         2.2147    -1.2392    -0.0556 H          1 ****  0
   26 H3         1.2558     0.6102    -1.4397 H          1 ****  0
   27 H4        -0.0435    -3.1949    -1.3282 H          1 ****  0
   28 H5        -0.3172    -3.4855     0.4201 H          1 ****  0
   29 H6         2.3838    -2.7984    -0.8844 H          1 ****  0
   30 H7         2.1116    -3.0904     0.8659 H          1 ****  0
   31 H8         3.6220    -4.8553     0.8084 H          1 ****  0
   32 H9         3.8955    -4.5623    -0.9424 H          1 ****  0
   33 H10        3.1125    -6.8803    -1.4514 H          1 ****  0
   34 H11        2.8391    -7.1723     0.2993 H          1 ****  0
   35 H12        4.5046    -6.9043    -0.3169 H          1 ****  0
   36 H13       -3.4546     4.8650    -0.4453 H          1 ****  0
   37 H14        0.8924     3.4926     0.3808 H          1 ****  0
   38 H15        3.3175     0.9528    -0.2495 H          1 ****  0
   39 H16        2.4643     2.3954    -0.3583 H          1 ****  0
   40 H17        1.6170     2.1308     1.8745 H          1 ****  0
   41 H18        2.5304     0.5886     1.9920 H          1 ****  0
   42 H19        3.7545     3.3677     1.4949 H          1 ****  0
   43 H20        4.6678     1.8259     1.6114 H          1 ****  0
   44 H21        3.7981     2.4650     3.0466 H          1 ****  0
@<TRIPOS>BOND
    1     1    11 1
    2     1    12 ar
    3     1    15 ar
    4     2     3 1
    5     2    19 1
    6     2    24 1
    7     2    25 1
    8     3    13 1
    9     3    20 1
   10     3    26 1
   11     4     5 1
   12     4    19 1
   13     4    27 1
   14     4    28 1
   15     5    21 1
   16     5    29 1
   17     5    30 1
   18     6     7 1
   19     6    21 1
   20     6    31 1
   21     6    32 1
   22     7    33 1
   23     7    34 1
   24     7    35 1
   25     8    11 2
   26     9    11 2
   27    10    11 1
   28    10    36 1
   29    12    13 ar
   30    12    37 1
   31    13    14 ar
   32    14    15 ar
   33    14    16 1
   34    16    17 2
   35    16    18 2
   36    16    19 am
   37    20    22 1
   38    20    38 1
   39    20    39 1
   40    22    23 1
   41    22    40 1
   42    22    41 1
   43    23    42 1
   44    23    43 1
   45    23    44 1
@<TRIPOS>SUBSTRUCTURE
1   ****   1
@<TRIPOS>MOLECULE
1a4g
43  43  1  0  0
SMALL
FORMAL_CHARGES
@<TRIPOS>ATOM
    1 C1         2.1756    -1.4988    -0.4626 C.2        1 ****  0.0000
    2 O1         3.2800    -0.9418    -0.4352 O.co2      1 ****  -0.50
    3 O2         2.0937    -2.8251    -0.7306 O.co2      1 ****  -0.50
    4 C2         0.9656    -0.7216    -0.1856 C.2        1 ****  0
    5 C3         1.1526     0.5694     0.1130 C.2        1 ****  0
    6 C4         0.0629     1.5067     0.4006 C.3        1 ****  0
    7 C5        -1.5580     0.9336     0.8051 C.3        1 ****  0
    8 N1        -2.5969     1.6805    -0.2690 N.am       1 ****  0
    9 C6        -3.1705     2.6367     0.6944 C.2        1 ****  0
   10 O3        -4.2531     3.1436     0.3866 O.2        1 ****  0
   11 C7        -2.6517     2.9788     2.0526 C.3        1 ****  0
   12 C8        -1.5607    -0.6556     0.0747 C.3        1 ****  0
   13 O4        -0.3281    -1.3914    -0.2771 O.3        1 ****  0
   14 C9        -1.9502     0.0688     1.4189 C.3        1 ****  0
   15 O5        -1.0577    -0.5679     2.3331 O.3        1 ****  0
   16 C10       -3.3006    -1.4927     2.1639 C.3        1 ****  0
   17 O6        -4.3958    -1.1283     1.2928 O.3        1 ****  0
   18 C11       -3.4583    -0.6772     3.4907 C.3        1 ****  0
   19 O7        -4.5720     0.0657     3.9913 O.3        1 ****  0
   20 N2         0.1695     1.9514     1.8687 N.3        1 ****  0
   21 C12        0.6412     1.2092     3.0673 C.2        1 ****  0
   22 N3         0.4273     1.7666     4.1977 N.2        1 ****  1
   23 N4         1.3121    -0.0739     3.0921 N.3        1 ****  0
   24 H1         2.1562     0.9392     0.1436 H          1 ****  0
   25 H2         0.2588     2.4309    -0.1641 H          1 ****  0
   26 H3        -1.8185     0.9920     1.8732 H          1 ****  0
   27 H4        -3.1548     1.5405    -1.0774 H          1 ****  0
   28 H5        -1.5961     3.2366     1.8026 H          1 ****  0
   29 H6        -2.5646     1.9587     2.4943 H          1 ****  0
   30 H7        -3.1306     3.6123     2.5523 H          1 ****  0
   31 H8        -2.3602    -1.0297    -0.5813 H          1 ****  0
   32 H9        -1.9074     1.1579     1.3055 H          1 ****  0
   33 H10       -0.2612    -1.0069     2.0427 H          1 ****  0
   34 H11       -3.2656    -2.5194     2.3540 H          1 ****  0
   35 H12       -4.3592    -2.1008     1.5188 H          1 ****  0
   36 H13       -2.5628    -0.3429     3.9718 H          1 ****  0
   37 H14       -3.6042    -1.7203     3.6957 H          1 ****  0
   38 H15       -5.3892    -0.1985     3.5190 H          1 ****  0
   39 H16       -0.2548     2.8209     2.0784 H          1 ****  0
   40 H17        0.7245     1.3156     5.0293 H          1 ****  0
   41 H18       -0.0174     2.6511     4.2322 H          1 ****  0
   42 H19        1.5258    -0.5787     2.2362 H          1 ****  0
   43 H20        1.5538    -0.4990     3.9970 H          1 ****  0
@<TRIPOS>BOND
    1     1     2 ar
    2     1     3 ar
    3     1     4 1
    4     4     5 2
    5     4    13 1
    6     5     6 1
    7     5    24 1
    8     6     7 1
    9     6    20 1
   10     6    25 1
   11     7     8 1
   12     7    12 1
   13     7    26 1
   14     8     9 am
   15     8    27 1
   16     9    10 2
   17     9    11 1
   18    11    28 1
   19    11    29 1
   20    11    30 1
   21    12    13 1
   22    12    14 1
   23    12    31 1
   24    14    15 1
   25    14    16 1
   26    14    32 1
   27    15    33 1
   28    16    17 1
   29    16    18 1
   30    16    34 1
   31    17    35 1
   32    18    19 1
   33    18    36 1
   34    18    37 1
   35    19    38 1
   36    20    21 1
   37    20    39 1
   38    21    22 2
   39    21    23 1
   40    22    40 1
   41    22    41 1
   42    23    42 1
   43    23    43 1
@<TRIPOS>SUBSTRUCTURE
1   ****   1
@<TRIPOS>MOLECULE
1a4q
55  56  1  0  0
SMALL
FORMAL_CHARGES
@<TRIPOS>ATOM
    1 C1         2.4149    -1.2556    -0.6649 C.2        1 ****  0.0000
    2 O1         3.4476    -0.6071    -0.8618 O.co2      1 ****  -0.50
    3 O2         2.4498    -2.6151    -0.6927 O.co2      1 ****  -0.50
    4 C2         1.1662    -0.5698    -0.3354 C.2        1 ****  0
    5 C3         1.1601     0.7706    -0.2882 C.2        1 ****  0
    6 C4        -0.0646     1.5857     0.0074 C.3        1 ****  0
    7 C5        -1.3460     0.9152     0.7982 C.3        1 ****  0
    8 N1        -2.6058     1.4172    -0.0999 N.am       1 ****  0
    9 C6        -3.2908     1.8760     1.1232 C.2        1 ****  0
   10 O3        -4.3647     2.4656     0.9667 O.2        1 ****  0
   11 C7        -2.8214     1.7169     2.5467 C.3        1 ****  0
   12 C8        -1.1563    -0.7327     0.4126 C.3        1 ****  0
   13 O4         0.0333    -1.3855    -0.0709 O.3        1 ****  0
   14 C9        -1.2467    -0.8080     1.9517 C.2        1 ****  0
   15 O5        -2.3691    -1.0525     2.4079 O.2        1 ****  0
   16 N2        -0.1587    -0.7809     2.9237 N.am       1 ****  0
   17 C10       -0.5683    -0.7838     4.3120 C.3        1 ****  0
   18 C11        0.6143    -1.0099     5.2639 C.3        1 ****  0
   19 C12        0.1566    -0.8855     6.6696 C.ar       1 ****  0
   20 C13       -1.1995    -0.8893     6.9657 C.ar       1 ****  0
   21 C14        1.0964    -0.7570     7.6855 C.ar       1 ****  0
   22 C15       -1.6185    -0.7728     8.2859 C.ar       1 ****  0
   23 C16        0.6774    -0.6346     9.0029 C.ar       1 ****  0
   24 C17       -0.6802    -0.6456     9.3027 C.ar       1 ****  0
   25 C18        1.2723    -0.9111     2.5945 C.3        1 ****  0
   26 C19        2.0970     0.3968     2.8790 C.3        1 ****  0
   27 C20        3.5595     0.2181     2.4433 C.3        1 ****  0
   28 N3        -0.0110     2.1306     1.3543 N.4        1 ****  1
   29 H1         2.0791     1.2871    -0.4715 H          1 ****  0
   30 H2        -0.0812     2.4466    -0.6724 H          1 ****  0
   31 H3        -1.4055     1.1391     1.8721 H          1 ****  0
   32 H4        -3.0784     1.6321    -0.9448 H          1 ****  0
   33 H5        -1.7965     2.1477     2.4686 H          1 ****  0
   34 H6        -2.6334     0.6187     2.5736 H          1 ****  0
   35 H7        -3.3717     2.0645     3.2236 H          1 ****  0
   36 H8        -2.0110    -1.3226     0.0520 H          1 ****  0
   37 H9        -1.3012    -1.5628     4.4648 H          1 ****  0
   38 H10       -1.0379     0.1640     4.5460 H          1 ****  0
   39 H11        1.3731    -0.2799     5.0711 H          1 ****  0
   40 H12        1.0178    -1.9918     5.1058 H          1 ****  0
   41 H13       -1.9201    -0.9816     6.1801 H          1 ****  0
   42 H14        2.1407    -0.7525     7.4524 H          1 ****  0
   43 H15       -2.6628    -0.7811     8.5189 H          1 ****  0
   44 H16        1.3982    -0.5319     9.7869 H          1 ****  0
   45 H17       -1.0032    -0.5559    10.3189 H          1 ****  0
   46 H18        1.6956    -1.7317     3.1710 H          1 ****  0
   47 H19        1.3725    -1.1732     1.5457 H          1 ****  0
   48 H20        2.0638     0.6190     3.9292 H          1 ****  0
   49 H21        1.6616     1.2190     2.3367 H          1 ****  0
   50 H22        3.5859    -0.0034     1.3948 H          1 ****  0
   51 H23        3.9866    -0.6021     2.9855 H          1 ****  0
   52 H24        4.1088     1.1077     2.6397 H          1 ****  0
   53 H25        0.8671     2.6486     1.4774 H          1 ****  0
   54 H26       -0.0711     1.3943     2.0341 H          1 ****  0
   55 H27       -0.7837     2.7746     1.4775 H          1 ****  0
@<TRIPOS>BOND
    1     1     2 ar
    2     1     3 ar
    3     1     4 1
    4     4     5 2
    5     4    13 1
    6     5     6 1
    7     5    29 1
    8     6     7 1
    9     6    28 1
   10     6    30 1
   11     7     8 1
   12     7    12 1
   13     7    31 1
   14     8     9 am
   15     8    32 1
   16     9    10 2
   17     9    11 1
   18    11    33 1
   19    11    34 1
   20    11    35 1
   21    12    13 1
   22    12    14 1
   23    12    36 1
   24    14    15 2
   25    14    16 am
   26    16    17 1
   27    16    25 1
   28    17    18 1
   29    17    37 1
   30    17    38 1
   31    18    19 1
   32    18    39 1
   33    18    40 1
   34    19    20 ar
   35    19    21 ar
   36    20    22 ar
   37    20    41 1
   38    21    23 ar
   39    21    42 1
   40    22    24 ar
   41    22    43 1
   42    23    24 ar
   43    23    44 1
   44    24    45 1
   45    25    26 1
   46    25    46 1
   47    25    47 1
   48    26    27 1
   49    26    48 1
   50    26    49 1
   51    27    50 1
   52    27    51 1
   53    27    52 1
   54    28    53 1
   55    28    54 1
   56    28    55 1
@<TRIPOS>SUBSTRUCTURE
1   ****   1
@<TRIPOS>MOLECULE
1a6w
28  28  1  0  0
SMALL
FORMAL_CHARGES
@<TRIPOS>ATOM
    1 C1         1.2398    -0.6498    -0.0001 C.ar       1 ****  0
    2 C2         1.2355     0.7400     0.0000 C.ar       1 ****  0
    3 C3         0.0297     1.4311    -0.0000 C.ar       1 ****  0
    4 N1         0.0248     2.8279     0.0001 N.pl3      1 ****  0.0000
    5 O1        -1.0965     3.4689     0.0001 O.2        1 ****  0.0000
    6 O2         1.0406     3.4203     0.0002 O.2        1 ****  0.0000
    7 C4        -1.1714     0.7322    -0.0001 C.ar       1 ****  0
    8 O3        -2.3768     1.4215    -0.0002 O.3        1 ****  0
    9 C5        -1.1665    -0.6573    -0.0002 C.ar       1 ****  0
   10 I1        -2.9430    -1.6910    -0.0004 I          1 ****  0
   11 C6         0.0388    -1.3486    -0.0002 C.ar       1 ****  0
   12 C7         2.5658    -1.4099    -0.0000 C.3        1 ****  0
   13 C8         3.8405    -0.5611    -0.0003 C.2        1 ****  0
   14 O4         3.8096     0.6739    -0.0005 O.2        1 ****  0
   15 N2         5.0838    -1.2025    -0.0003 N.am       1 ****  0
   16 C9         6.2914    -0.4228    -0.0005 C.3        1 ****  0
   17 C10        7.5158    -1.3585    -0.0003 C.3        1 ****  0
   18 H1         2.1864     1.2930     0.0001 H          1 ****  0
   19 H2        -2.3349     2.0085    -0.7963 H          1 ****  0
   20 H3         0.0422    -2.4485    -0.0003 H          1 ****  0
   21 H4         2.5889    -2.0698    -0.8797 H          1 ****  0
   22 H5         2.5883    -2.0688     0.8804 H          1 ****  0
   23 H6         5.1337    -2.2313    -0.0001 H          1 ****  0
   24 H7         6.3177     0.2132     0.8966 H          1 ****  0
   25 H8         6.3169     0.2122    -0.8983 H          1 ****  0
   26 H9         7.4902    -1.9940    -0.8978 H          1 ****  0
   27 H10        7.4902    -1.9936     0.8974 H          1 ****  0
   28 H11        8.4385    -0.7596    -0.0005 H          1 ****  0
@<TRIPOS>BOND
    1     1     2 ar
    2     1    11 ar
    3     1    12 1
    4     2     3 ar
    5     2    18 1
    6     3     4 1
    7     3     7 ar
    8     4     5 2
    9     4     6 2
   10     7     8 1
   11     7     9 ar
   12     8    19 1
   13     9    10 1
   14     9    11 ar
   15    11    20 1
   16    12    13 1
   17    12    21 1
   18    12    22 1
   19    13    14 2
   20    13    15 am
   21    15    16 1
   22    15    23 1
   23    16    17 1
   24    16    24 1
   25    16    25 1
   26    17    26 1
   27    17    27 1
   28    17    28 1
@<TRIPOS>SUBSTRUCTURE
1   ****   1
@<TRIPOS>MOLECULE
1a9u
43  46  1  0  0
SMALL
FORMAL_CHARGES
@<TRIPOS>ATOM
    1 O1         1.4327     3.6005     0.0995 O.2        1 ****  0
    2 C1        -0.9597     3.7064     1.4007 C.3        1 ****  0
    3 S1         0.2730     2.7079     0.8840 S.O        1 ****  0
    4 C2         1.1937    -0.7755    -0.0125 C.ar       1 ****  0
    5 C3         1.1999     0.6147    -0.0135 C.ar       1 ****  0
    6 C4        -0.0001     1.3157     0.0006 C.ar       1 ****  0
    7 C5        -1.2053     0.6232     0.0146 C.ar       1 ****  0
    8 C6        -1.2108    -0.7682     0.0136 C.ar       1 ****  0
    9 C7        -0.0121    -1.4706     0.0005 C.ar       1 ****  0
   10 N1         3.7089    -8.0551    -0.0006 N.ar       1 ****  0
   11 C8         4.0570    -6.7733    -0.0015 C.ar       1 ****  0
   12 C9         3.0952    -5.7685    -0.0017 C.ar       1 ****  0
   13 C10        1.7466    -6.1006    -0.0011 C.ar       1 ****  0
   14 C11        1.4330    -7.4503    -0.0001 C.ar       1 ****  0
   15 C12        2.4322    -8.4140     0.0001 C.ar       1 ****  0
   16 N2         1.0721    -3.7062    -0.0015 N.ar       1 ****  0
   17 C13       -0.0126    -2.9491    -0.0001 C.ar       1 ****  0
   18 N3        -1.0993    -3.7177     0.0011 N.ar       1 ****  0
   19 C14       -0.6908    -4.9862     0.0002 C.ar       1 ****  0
   20 C15        0.7146    -4.9816    -0.0008 C.ar       1 ****  0
   21 C16       -3.0474    -5.8364     0.0009 C.ar       1 ****  0
   22 C17       -3.9930    -6.8583     0.0006 C.ar       1 ****  0
   23 C18       -3.5891    -8.1885    -0.0001 C.ar       1 ****  0
   24 C19       -2.2372    -8.4924    -0.0005 C.ar       1 ****  0
   25 C20       -1.3062    -7.4643    -0.0003 C.ar       1 ****  0
   26 C21       -1.6871    -6.1313     0.0005 C.ar       1 ****  0
   27 F1        -4.4947    -9.1774    -0.0004 F          1 ****  0
   28 H1        -0.9618     4.7763     1.3893 H          1 ****  0
   29 H2        -0.5215     3.3620     2.3140 H          1 ****  0
   30 H3        -1.9659     3.3459     1.3285 H          1 ****  0
   31 H4         2.1189    -1.3128    -0.0217 H          1 ****  0
   32 H5         2.1290     1.1453    -0.0251 H          1 ****  0
   33 H6        -2.1303     1.1609     0.0261 H          1 ****  0
   34 H7        -2.1401    -1.2984     0.0231 H          1 ****  0
   35 H8         5.0940    -6.5094    -0.0020 H          1 ****  0
   36 H9         3.3938    -4.7410    -0.0023 H          1 ****  0
   37 H10        0.4070    -7.7539     0.0004 H          1 ****  0
   38 H11        2.1710    -9.4517     0.0009 H          1 ****  0
   39 H12        2.0076    -3.3695    -0.0020 H          1 ****  0
   40 H13       -3.3692    -4.8159     0.0015 H          1 ****  0
   41 H14       -5.0358    -6.6187     0.0009 H          1 ****  0
   42 H15       -1.9140    -9.5124    -0.0010 H          1 ****  0
   43 H16       -0.2641    -7.7070    -0.0008 H          1 ****  0
@<TRIPOS>BOND
    1     1     3 2
    2     2    28 1
    3     2    29 1
    4     2    30 1
    5     3     2 1
    6     3     6 1
    7     4     5 ar
    8     4     9 ar
    9     4    31 1
   10     5     6 ar
   11     5    32 1
   12     6     7 ar
   13     7     8 ar
   14     7    33 1
   15     8     9 ar
   16     8    34 1
   17     9    17 1
   18    10    11 ar
   19    10    15 ar
   20    11    12 ar
   21    11    35 1
   22    12    13 ar
   23    12    36 1
   24    13    14 ar
   25    13    20 1
   26    14    15 ar
   27    14    37 1
   28    15    38 1
   29    16    17 ar
   30    16    20 ar
   31    16    39 1
   32    17    18 ar
   33    18    19 ar
   34    19    20 ar
   35    19    26 1
   36    21    22 ar
   37    21    26 ar
   38    21    40 1
   39    22    23 ar
   40    22    41 1
   41    23    24 ar
   42    23    27 1
   43    24    25 ar
   44    24    42 1
   45    25    26 ar
   46    25    43 1
@<TRIPOS>SUBSTRUCTURE
1   ****   1
@<TRIPOS>MOLECULE
1aaq
89  89  1  0  0
SMALL
FORMAL_CHARGES
@<TRIPOS>ATOM
    1 C1         3.8128    -2.8107    -7.4360 C.3        1 ****  0
    2 C2         2.5687    -1.9202    -7.6016 C.3        1 ****  0
    3 N1         2.5532    -1.2737    -8.9216 N.4        1 ****  1
    4 C3         2.5198    -0.8860    -6.5165 C.2        1 ****  0
    5 O1         2.0213     0.2216    -6.7471 O.2        1 ****  0
    6 N2         3.0144    -1.1838    -5.2403 N.am       1 ****  0
    7 C4         3.9606    -0.6402    -4.1750 C.3        1 ****  0
    8 C5         3.9864     0.9229    -4.4285 C.3        1 ****  0
    9 C6         3.1796    -0.8264    -2.8571 C.2        1 ****  0
   10 O2         3.0952    -2.0541    -2.7355 O.2        1 ****  0
   11 N3         3.4847    -0.0018    -1.7549 N.am       1 ****  0
   12 C7         3.6799    -0.5269    -0.4194 C.3        1 ****  0
   13 C8         2.5097    -1.4495    -0.0019 C.3        1 ****  0
   14 C9         1.2084    -0.6974    -0.0001 C.ar       1 ****  0
   15 C10        1.2089     0.6915     0.0001 C.ar       1 ****  0
   16 C11        0.0043    -1.3930    -0.0003 C.ar       1 ****  0
   17 C12        0.0048     1.3871     0.0001 C.ar       1 ****  0
   18 C13       -1.1987    -0.6980    -0.0003 C.ar       1 ****  0
   19 C14       -1.1983     0.6923    -0.0001 C.ar       1 ****  0
   20 C15        5.0338    -0.4757     0.3549 C.3        1 ****  0
   21 O3         5.1932    -1.8174     0.9604 O.3        1 ****  0
   22 C16        6.1674    -0.3629    -0.7132 C.3        1 ****  0
   23 C17        7.5028    -1.1308    -0.6500 C.3        1 ****  0
   24 C18        8.6331    -0.1850    -0.9430 C.2        1 ****  0
   25 O4         8.3956     1.0156    -1.1182 O.2        1 ****  0
   26 N4         9.9538    -0.6621    -1.0055 N.am       1 ****  0
   27 C19       11.0029    -0.5981    -2.0426 C.3        1 ****  0
   28 C20       10.8191     0.8361    -2.7385 C.3        1 ****  0
   29 C21       10.8264    -0.2894    -3.7903 C.3        1 ****  0
   30 C22       11.8847     1.8931    -3.0908 C.3        1 ****  0
   31 C23       12.3484    -0.5319    -1.2414 C.2        1 ****  0
   32 O5        12.3311    -1.7313    -0.9432 O.2        1 ****  0
   33 N5        13.5752     0.1125    -1.4778 N.am       1 ****  0
   34 C24       14.8457     0.2468    -0.7501 C.3        1 ****  0
   35 C25       15.0562    -1.1792    -0.0068 C.3        1 ****  0
   36 C26       15.1802    -0.0201     0.9994 C.3        1 ****  0
   37 C27       16.3127    -2.0710     0.0572 C.3        1 ****  0
   38 C28       15.9299     0.3193    -1.8708 C.2        1 ****  0
   39 O6        17.2601    -0.1018    -1.8961 O.3        1 ****  0
   40 O7        15.6488     1.4675    -2.2328 O.2        1 ****  0
   41 C29       18.0950     0.9642    -2.3566 C.3        1 ****  0
   42 H1         4.7125    -2.1884    -7.5506 H          1 ****  0
   43 H2         3.8053    -3.5805    -8.2217 H          1 ****  0
   44 H3         3.8097    -3.2866    -6.4443 H          1 ****  0
   45 H4         1.6781    -2.5610    -7.5236 H          1 ****  0
   46 H5         2.5536    -2.0035    -9.6486 H          1 ****  0
   47 H6         3.4030    -0.7001    -9.0204 H          1 ****  0
   48 H7         1.7162    -0.6814    -9.0190 H          1 ****  0
   49 H8         3.4216    -2.1104    -5.0493 H          1 ****  0
   50 H9         4.9672    -1.0831    -4.1522 H          1 ****  0
   51 H10        3.7799     1.4003    -5.3977 H          1 ****  0
   52 H11        4.9919     0.4775    -4.4542 H          1 ****  0
   53 H12        3.9258     1.6682    -3.6217 H          1 ****  0
   54 H13        3.5721     1.0134    -1.9053 H          1 ****  0
   55 H14        3.7150     0.3197     0.2821 H          1 ****  0
   56 H15        2.4409    -2.2909    -0.7071 H          1 ****  0
   57 H16        2.7002    -1.8460     1.0064 H          1 ****  0
   58 H17        2.1617     1.2413     0.0003 H          1 ****  0
   59 H18        0.0042    -2.4930    -0.0005 H          1 ****  0
   60 H19        0.0048     2.4871     0.0003 H          1 ****  0
   61 H20       -2.1515    -1.2478    -0.0004 H          1 ****  0
   62 H21       -2.1508     1.2424    -0.0001 H          1 ****  0
   63 H22        5.0638     0.3582     1.0716 H          1 ****  0
   64 H23        4.4440    -2.4202     1.1959 H          1 ****  0
   65 H24        6.0222     0.0344    -1.7286 H          1 ****  0
   66 H25        6.1915     0.4709     0.0039 H          1 ****  0
   67 H26        7.4985    -1.9390    -1.3961 H          1 ****  0
   68 H27        7.6335    -1.5581     0.3552 H          1 ****  0
   69 H28       10.1469    -1.6575    -0.8244 H          1 ****  0
   70 H29       10.9657    -1.4278    -2.7639 H          1 ****  0
   71 H30        9.8420     1.3414    -2.7375 H          1 ****  0
   72 H31       10.0203    -1.0038    -3.5672 H          1 ****  0
   73 H32       11.7946    -0.8107    -3.7615 H          1 ****  0
   74 H33       10.6702     0.1395    -4.7912 H          1 ****  0
   75 H34       12.8745     1.4156    -3.0436 H          1 ****  0
   76 H35       11.8406     2.6934    -2.3373 H          1 ****  0
   77 H36       11.7069     2.3045    -4.0953 H          1 ****  0
   78 H37       13.5854     1.1215    -1.6846 H          1 ****  0
   79 H38       14.8755     1.1065    -0.0645 H          1 ****  0
   80 H39       14.1918    -1.8075     0.2541 H          1 ****  0
   81 H40       14.2528     0.5715     0.9910 H          1 ****  0
   82 H41       16.0255     0.6230     0.7133 H          1 ****  0
   83 H42       15.3500    -0.4229     2.0088 H          1 ****  0
   84 H43       17.1807    -1.4702    -0.2522 H          1 ****  0
   85 H44       16.1849    -2.9020    -0.6522 H          1 ****  0
   86 H45       16.4615    -2.4590     1.0757 H          1 ****  0
   87 H46       17.9964     1.8249    -1.6788 H          1 ****  0
   88 H47       17.7853     1.2599    -3.3698 H          1 ****  0
   89 H48       19.1430     0.6304    -2.3760 H          1 ****  0
@<TRIPOS>BOND
    1     1     2 1
    2     1    42 1
    3     1    43 1
    4     1    44 1
    5     2     3 1
    6     2     4 1
    7     2    45 1
    8     3    46 1
    9     3    47 1
   10     3    48 1
   11     4     5 2
   12     4     6 am
   13     6     7 1
   14     6    49 1
   15     7     8 1
   16     7     9 1
   17     7    50 1
   18     8    51 1
   19     8    52 1
   20     8    53 1
   21     9    10 2
   22     9    11 am
   23    11    54 1
   24    12    11 1
   25    12    13 1
   26    12    20 1
   27    12    55 1
   28    13    14 1
   29    13    56 1
   30    13    57 1
   31    14    15 ar
   32    14    16 ar
   33    15    17 ar
   34    15    58 1
   35    16    18 ar
   36    16    59 1
   37    17    19 ar
   38    17    60 1
   39    18    19 ar
   40    18    61 1
   41    19    62 1
   42    20    21 1
   43    20    22 1
   44    20    63 1
   45    21    64 1
   46    22    23 1
   47    22    65 1
   48    22    66 1
   49    23    24 1
   50    23    67 1
   51    23    68 1
   52    24    25 2
   53    24    26 am
   54    26    69 1
   55    27    26 1
   56    27    28 1
   57    27    31 1
   58    27    70 1
   59    28    29 1
   60    28    30 1
   61    28    71 1
   62    29    72 1
   63    29    73 1
   64    29    74 1
   65    30    75 1
   66    30    76 1
   67    30    77 1
   68    31    32 2
   69    31    33 am
   70    33    78 1
   71    34    33 1
   72    34    35 1
   73    34    38 1
   74    34    79 1
   75    35    36 1
   76    35    37 1
   77    35    80 1
   78    36    81 1
   79    36    82 1
   80    36    83 1
   81    37    84 1
   82    37    85 1
   83    37    86 1
   84    38    39 1
   85    38    40 2
   86    39    41 1
   87    41    87 1
   88    41    88 1
   89    41    89 1
@<TRIPOS>SUBSTRUCTURE
1   ****   1
@<TRIPOS>MOLECULE
1abe
20  20  1  0  0
SMALL
FORMAL_CHARGES
@<TRIPOS>ATOM
    1 C1         0.2929    -0.1906     0.6200 C.3        1 ****  0
    2 C2         1.2427     0.7161    -0.2447 C.3        1 ****  0
    3 C3         0.0002     1.4586     0.2473 C.3        1 ****  0
    4 C4        -1.2343     0.7213    -0.2751 C.3        1 ****  0
    5 C5        -1.1884    -0.7300     0.2396 C.3        1 ****  0
    6 O1         1.1548    -0.7337     1.6994 O.3        1 ****  0
    7 O2         2.4167     1.3608     0.2561 O.3        1 ****  0
    8 O3         0.0101     2.8019    -0.2422 O.3        1 ****  0
    9 O4        -1.2159     0.7160    -1.7050 O.3        1 ****  0
   10 O5         0.0034    -1.3855    -0.2347 O.3        1 ****  0
   11 H1        -0.5976     0.3518     0.9702 H          1 ****  0
   12 H2         1.2757     0.7218    -1.3442 H          1 ****  0
   13 H3        -0.0138     1.4892     1.3468 H          1 ****  0
   14 H4        -2.1497     1.2211     0.0744 H          1 ****  0
   15 H5        -2.0725    -1.2752    -0.1224 H          1 ****  0
   16 H6        -1.1899    -0.7278     1.3396 H          1 ****  0
   17 H7         0.3565    -0.2396     2.0136 H          1 ****  0
   18 H8         3.2184     0.8685    -0.0521 H          1 ****  0
   19 H9         0.0167     2.7900    -1.2321 H          1 ****  0
   20 H10       -0.3987     0.2571    -2.0240 H          1 ****  0
@<TRIPOS>BOND
    1     1     2 1
    2     1     6 1
    3     1    10 1
    4     1    11 1
    5     2     3 1
    6     2     7 1
    7     2    12 1
    8     3     4 1
    9     3     8 1
   10     3    13 1
   11     4     5 1
   12     4     9 1
   13     4    14 1
   14     5    10 1
   15     5    15 1
   16     5    16 1
   17     6    17 1
   18     7    18 1
   19     8    19 1
   20     9    20 1
@<TRIPOS>SUBSTRUCTURE
1   ****   1
@<TRIPOS>MOLECULE
1abe
20  20  1  0  0
SMALL
FORMAL_CHARGES
@<TRIPOS>ATOM
    1 C1         1.2166    -0.7366    -0.8504 C.3        1 ****  0
    2 C2         1.2467     0.7147    -0.2583 C.3        1 ****  0
    3 C3         0.0066     1.4541     0.2440 C.3        1 ****  0
    4 C4        -1.2297     0.7182    -0.2744 C.3        1 ****  0
    5 C5        -1.1798    -0.7347     0.2341 C.3        1 ****  0
    6 O1         2.3499    -1.4403    -0.2130 O.3        1 ****  0
    7 O2         2.4234     1.3585     0.2371 O.3        1 ****  0
    8 O3         0.0125     2.7995    -0.2402 O.3        1 ****  0
    9 O4        -1.2192     0.7187    -1.7044 O.3        1 ****  0
   10 O5         0.0093    -1.3873    -0.2503 O.3        1 ****  0
   11 H1         1.2398    -0.7355    -1.9502 H          1 ****  0
   12 H2         1.2718     0.7251    -1.3580 H          1 ****  0
   13 H3        -0.0010     1.4804     1.3436 H          1 ****  0
   14 H4        -2.1436     1.2158     0.0822 H          1 ****  0
   15 H5        -2.0658    -1.2790    -0.1246 H          1 ****  0
   16 H6        -1.1744    -0.7369     1.3340 H          1 ****  0
   17 H7         3.1668    -1.0007     0.1327 H          1 ****  0
   18 H8         3.2236     0.8690    -0.0794 H          1 ****  0
   19 H9         0.0134     2.7915    -1.2302 H          1 ****  0
   20 H10       -0.4034     0.2618    -2.0298 H          1 ****  0
@<TRIPOS>BOND
    1     1     2 1
    2     1     6 1
    3     1    10 1
    4     1    11 1
    5     2     3 1
    6     2     7 1
    7     2    12 1
    8     3     4 1
    9     3     8 1
   10     3    13 1
   11     4     5 1
   12     4     9 1
   13     4    14 1
   14     5    10 1
   15     5    15 1
   16     5    16 1
   17     6    17 1
   18     7    18 1
   19     8    19 1
   20     9    20 1
@<TRIPOS>SUBSTRUCTURE
1   ****   1
@<TRIPOS>MOLECULE
1abf
23  23  1  0  0
SMALL
FORMAL_CHARGES
@<TRIPOS>ATOM
    1 C1         1.2222    -0.7391    -0.8563 C.3        1 ****  0
    2 C2         1.2535     0.7187    -0.2686 C.3        1 ****  0
    3 C3         0.0134     1.4546     0.2441 C.3        1 ****  0
    4 C4        -1.2252     0.7173    -0.2710 C.3        1 ****  0
    5 C5        -0.2996    -0.2017     0.6194 C.3        1 ****  0
    6 C6        -1.2141    -0.7682     1.7735 C.3        1 ****  0
    7 O1         2.3586    -1.4375    -0.2204 O.3        1 ****  0
    8 O2         2.4311     1.3641     0.2225 O.3        1 ****  0
    9 O3         0.0139     2.8010    -0.2371 O.3        1 ****  0
   10 O4        -1.2150     0.7204    -1.7010 O.3        1 ****  0
   11 O5         0.0156    -1.3908    -0.2455 O.3        1 ****  0
   12 H1         1.2410    -0.7443    -1.9561 H          1 ****  0
   13 H2         1.2743     0.7300    -1.3684 H          1 ****  0
   14 H3         0.0117     1.4773     1.3438 H          1 ****  0
   15 H4        -2.1375     1.2138     0.0912 H          1 ****  0
   16 H5         0.5796     0.3353     1.0047 H          1 ****  0
   17 H6        -2.1396    -0.2878     2.1237 H          1 ****  0
   18 H7        -0.3474    -0.2162     2.1661 H          1 ****  0
   19 H8        -1.1809    -1.8092     2.1275 H          1 ****  0
   20 H9         3.1763    -0.9961     0.1212 H          1 ****  0
   21 H10        3.2310     0.8749    -0.0951 H          1 ****  0
   22 H11        0.0084     2.7956    -1.2271 H          1 ****  0
   23 H12       -0.4001     0.2636    -2.0288 H          1 ****  0
@<TRIPOS>BOND
    1     1     2 1
    2     1     7 1
    3     1    11 1
    4     1    12 1
    5     2     3 1
    6     2     8 1
    7     2    13 1
    8     3     4 1
    9     3     9 1
   10     3    14 1
   11     4     5 1
   12     4    10 1
   13     4    15 1
   14     5     6 1
   15     5    11 1
   16     5    16 1
   17     6    17 1
   18     6    18 1
   19     6    19 1
   20     7    20 1
   21     8    21 1
   22     9    22 1
   23    10    23 1
@<TRIPOS>SUBSTRUCTURE
1   ****   1
@<TRIPOS>MOLECULE
1abf
23  23  1  0  0
SMALL
FORMAL_CHARGES
@<TRIPOS>ATOM
    1 C1         0.3804    -0.1776     0.6929 C.3        1 ****  0
    2 C2         1.2369     0.7246    -0.2587 C.3        1 ****  0
    3 C3        -0.0016     1.4550     0.2719 C.3        1 ****  0
    4 C4        -1.2301     0.7240    -0.2806 C.3        1 ****  0
    5 C5        -0.3919    -0.1806     0.6942 C.3        1 ****  0
    6 C6        -1.4595    -0.7695     1.7539 C.3        1 ****  0
    7 O1         1.3922    -0.7450     1.6757 O.3        1 ****  0
    8 O2         2.4253     1.3828     0.1872 O.3        1 ****  0
    9 O3         0.0028     2.8019    -0.2085 O.3        1 ****  0
   10 O4        -1.1575     0.7223    -1.7089 O.3        1 ****  0
   11 O5         0.0062    -1.4086    -0.1691 O.3        1 ****  0
   12 H1        -0.4672     0.3708     1.1297 H          1 ****  0
   13 H2         1.2177     0.7307    -1.3585 H          1 ****  0
   14 H3        -0.0116     1.4673     1.3718 H          1 ****  0
   15 H4        -2.1512     1.2274     0.0483 H          1 ****  0
   16 H5         0.4424     0.3680     1.1557 H          1 ****  0
   17 H6        -2.4298    -0.3028     1.9795 H          1 ****  0
   18 H7        -0.6609    -0.2014     2.2534 H          1 ****  0
   19 H8        -1.4548    -1.8107     2.1087 H          1 ****  0
   20 H9         0.6513    -0.2409     2.0964 H          1 ****  0
   21 H10        3.2187     0.9045    -0.1619 H          1 ****  0
   22 H11       -0.0141     2.8018    -1.1983 H          1 ****  0
   23 H12       -0.3366     0.2542    -2.0040 H          1 ****  0
@<TRIPOS>BOND
    1     1     2 1
    2     1     7 1
    3     1    11 1
    4     1    12 1
    5     2     3 1
    6     2     8 1
    7     2    13 1
    8     3     4 1
    9     3     9 1
   10     3    14 1
   11     4     5 1
   12     4    10 1
   13     4    15 1
   14     5     6 1
   15     5    11 1
   16     5    16 1
   17     6    17 1
   18     6    18 1
   19     6    19 1
   20     7    20 1
   21     8    21 1
   22     9    22 1
   23    10    23 1
@<TRIPOS>SUBSTRUCTURE
1   ****   1
@<TRIPOS>MOLECULE
1acj
30  32  1  0  0
SMALL
FORMAL_CHARGES
@<TRIPOS>ATOM
    1 C1         1.1928    -0.7038    -0.0020 C.ar       1 ****  0
    2 C2         1.1986     0.6859    -0.0043 C.ar       1 ****  0
    3 C3        -0.0018     1.3856    -0.0029 C.ar       1 ****  0
    4 C4        -1.2049     0.6931     0.0015 C.ar       1 ****  0
    5 C5        -1.2143    -0.6960     0.0030 C.ar       1 ****  0
    6 C6        -0.0131    -1.3949     0.0013 C.ar       1 ****  0
    7 N1         0.0102     2.7133    -0.0050 N.ar       1 ****  1
    8 C7        -1.1104     3.4280    -0.0049 C.ar       1 ****  0
    9 C8        -2.3505     2.7900     0.0028 C.ar       1 ****  0
   10 C9        -2.3949     1.4034     0.0041 C.ar       1 ****  0
   11 C10       -0.9972     4.9322     0.0041 C.3        1 ****  0
   12 C11       -2.3090     5.5932    -0.4281 C.3        1 ****  0
   13 C12       -3.4275     5.0163     0.4263 C.3        1 ****  0
   14 C13       -3.6465     3.5621    -0.0020 C.3        1 ****  0
   15 N2        -3.6480     0.7183     0.0063 N.pl3      1 ****  0
   16 H1         2.1434    -1.2573    -0.0027 H          1 ****  0
   17 H2         2.1535     1.2319    -0.0072 H          1 ****  0
   18 H3        -2.1697    -1.2412     0.0057 H          1 ****  0
   19 H4        -0.0167    -2.4948     0.0024 H          1 ****  0
   20 H5         0.9156     3.2044    -0.0066 H          1 ****  0
   21 H6        -0.1946     5.2398    -0.6823 H          1 ****  0
   22 H7        -0.7398     5.2696     1.0190 H          1 ****  0
   23 H8        -2.2459     6.6800    -0.2703 H          1 ****  0
   24 H9        -2.5034     5.3745    -1.4885 H          1 ****  0
   25 H10       -4.3514     5.5916     0.2667 H          1 ****  0
   26 H11       -3.1385     5.0498     1.4871 H          1 ****  0
   27 H12       -4.3563     3.0845     0.6894 H          1 ****  0
   28 H13       -4.0751     3.5439    -1.0150 H          1 ****  0
   29 H14       -3.6654    -0.3116     0.0060 H          1 ****  0
   30 H15       -4.5300     1.2501     0.0082 H          1 ****  0
@<TRIPOS>BOND
    1     1     2 ar
    2     1     6 ar
    3     1    16 1
    4     2     3 ar
    5     2    17 1
    6     3     4 ar
    7     3     7 ar
    8     4     5 ar
    9     4    10 ar
   10     5     6 ar
   11     5    18 1
   12     6    19 1
   13     7     8 ar
   14     7    20 1
   15     8     9 ar
   16     8    11 1
   17     9    10 ar
   18     9    14 1
   19    10    15 1
   20    11    12 1
   21    11    21 1
   22    11    22 1
   23    12    13 1
   24    12    23 1
   25    12    24 1
   26    13    14 1
   27    13    25 1
   28    13    26 1
   29    14    27 1
   30    14    28 1
   31    15    29 1
   32    15    30 1
@<TRIPOS>SUBSTRUCTURE
1   ****   1
@<TRIPOS>MOLECULE
1acl
56  55  1  0  0
SMALL
FORMAL_CHARGES
@<TRIPOS>ATOM
    1 N1         0.3495     1.5850     0.0700 N.4        1 ****  1
    2 C1        -0.8688     2.4158     0.1128 C.3        1 ****  0
    3 C2         4.0426     0.8196     0.0187 C.3        1 ****  0
    4 C3         5.3028    -0.0665    -0.0094 C.3        1 ****  0
    5 C4         6.5617     0.8219     0.0075 C.3        1 ****  0
    6 C5         7.8197    -0.0693    -0.0017 C.3        1 ****  0
    7 C6         9.0809     0.8166    -0.0023 C.3        1 ****  0
    8 C7        10.3393    -0.0743     0.0079 C.3        1 ****  0
    9 C8        11.5976     0.8152    -0.0101 C.3        1 ****  0
   10 C9        12.8586    -0.0701     0.0191 C.3        1 ****  0
   11 C10       14.1142     0.8278    -0.0163 C.3        1 ****  0
   12 N2        15.3332    -0.0022     0.0276 N.4        1 ****  1
   13 C11        0.3847    -0.1179    -0.0151 C.3        1 ****  0
   14 C12        1.5441     1.6621    -1.1298 C.3        1 ****  0
   15 C13        1.5475     1.5408     1.2698 C.3        1 ****  0
   16 C14       16.5155     0.8720    -0.0141 C.3        1 ****  0
   17 C15       15.3590    -0.9097    -1.1292 C.3        1 ****  0
   18 C16       15.3538    -0.7879     1.2704 C.3        1 ****  0
   19 H1         2.7895    -0.6735    -0.9395 H          1 ****  0
   20 H2         2.7970    -0.7530     0.8516 H          1 ****  0
   21 H3         4.0395     1.4228     0.9385 H          1 ****  0
   22 H4         4.0430     1.4850    -0.8573 H          1 ****  0
   23 H5         5.3005    -0.6797    -0.9226 H          1 ****  0
   24 H6         5.3078    -0.7244     0.8722 H          1 ****  0
   25 H7         6.5606     1.4441     0.9146 H          1 ****  0
   26 H8         6.5654     1.4697    -0.8816 H          1 ****  0
   27 H9         7.8161    -0.7008    -0.9024 H          1 ****  0
   28 H10        7.8223    -0.7088     0.8933 H          1 ****  0
   29 H11        9.0799     1.4580     0.8914 H          1 ****  0
   30 H12        9.0860     1.4464    -0.9041 H          1 ****  0
   31 H13       10.3375    -0.7237    -0.8800 H          1 ****  0
   32 H14       10.3423    -0.6946     0.9163 H          1 ****  0
   33 H15       11.5937     1.4748     0.8702 H          1 ****  0
   34 H16       11.6010     1.4266    -0.9245 H          1 ****  0
   35 H17       12.8605    -0.7370    -0.8557 H          1 ****  0
   36 H18       12.8639    -0.6714     0.9401 H          1 ****  0
   37 H19       14.1041     1.5059     0.8498 H          1 ****  0
   38 H20       14.1118     1.4229    -0.9413 H          1 ****  0
   39 H21        0.3950    -0.7968     0.8503 H          1 ****  0
   40 H22        0.3931    -0.7072    -0.9439 H          1 ****  0
   41 H23       -0.5255     0.4990     0.0167 H          1 ****  0
   42 H24        1.5523     1.0716    -2.0579 H          1 ****  0
   43 H25        2.4314     2.3117    -1.1028 H          1 ****  0
   44 H26        0.6350     2.2805    -1.0960 H          1 ****  0
   45 H27        2.4348     2.1900     1.3065 H          1 ****  0
   46 H28        1.5571     0.8602     2.1339 H          1 ****  0
   47 H29        0.6386     2.1597     1.3003 H          1 ****  0
   48 H30       16.5041     1.5510     0.8512 H          1 ****  0
   49 H31       16.5074     1.4610    -0.9431 H          1 ****  0
   50 H32       17.4264     0.2562     0.0185 H          1 ****  0
   51 H33       15.3514    -0.3190    -2.0571 H          1 ****  0
   52 H34       14.4721    -1.5599    -1.1032 H          1 ****  0
   53 H35       16.2686    -1.5274    -1.0944 H          1 ****  0
   54 H36       14.4670    -1.4376     1.3072 H          1 ****  0
   55 H37       15.3434    -0.1067     2.1340 H          1 ****  0
   56 H38       16.2632    -1.4061     1.3015 H          1 ****  0
@<TRIPOS>BOND
    1     1     2 1
    2     1    13 1
    3     1    14 1
    4     1    15 1
    5     2     3 1
    6     2    19 1
    7     2    20 1
    8     3     4 1
    9     3    21 1
   10     3    22 1
   11     4     5 1
   12     4    23 1
   13     4    24 1
   14     5     6 1
   15     5    25 1
   16     5    26 1
   17     6     7 1
   18     6    27 1
   19     6    28 1
   20     7     8 1
   21     7    29 1
   22     7    30 1
   23     8     9 1
   24     8    31 1
   25     8    32 1
   26     9    10 1
   27     9    33 1
   28     9    34 1
   29    10    11 1
   30    10    35 1
   31    10    36 1
   32    11    12 1
   33    11    37 1
   34    11    38 1
   35    12    16 1
   36    12    17 1
   37    12    18 1
   38    13    39 1
   39    13    40 1
   40    13    41 1
   41    14    42 1
   42    14    43 1
   43    14    44 1
   44    15    45 1
   45    15    46 1
   46    15    47 1
   47    16    48 1
   48    16    49 1
   49    16    50 1
   50    17    51 1
   51    17    52 1
   52    17    53 1
   53    18    54 1
   54    18    55 1
   55    18    56 1
@<TRIPOS>SUBSTRUCTURE
1   ****   1
@<TRIPOS>MOLECULE
1acm
22  21  1  0  0
SMALL
FORMAL_CHARGES
@<TRIPOS>ATOM
    1 P1         1.4069     0.7834     0.0205 P.3        1 ****  0
    2 O1         0.2816    -0.0152    -0.0335 O.co2      1 ****  0
    3 O2         1.3915     1.7551    -1.1438 O.co2      1 ****  -1
    4 O3         1.4143     1.5561     1.3255 O.co2      1 ****  -1
    5 C1         2.7634    -0.1708    -0.0690 C.3        1 ****  0
    6 C2         3.9980     0.6840    -0.0005 C.2        1 ****  0
    7 O4         3.8981     1.9101     0.1063 O.2        1 ****  0
    8 N1         5.2590     0.0819    -0.0647 N.am       1 ****  0
    9 C3         6.4251     0.0847     0.8210 C.3        1 ****  0
   10 C4         6.4845     1.4895     1.4225 C.2        1 ****  0.0000
   11 O5         6.4800     2.8398     1.5594 O.co2      1 ****  -0.50
   12 O6         6.5270     0.7662     2.4236 O.co2      1 ****  -0.50
   13 C5         7.6581    -0.0741    -0.0913 C.3        1 ****  0
   14 C6         8.9428     0.7041     0.0007 C.2        1 ****  0.0000
   15 O7         8.9188     2.0605     0.0806 O.co2      1 ****  -0.50
   16 O8        10.0257     0.1079    -0.0164 O.co2      1 ****  -0.50
   17 H1         2.7580    -0.7280    -1.0174 H          1 ****  0
   18 H2         2.7658    -0.8827     0.7696 H          1 ****  0
   19 H3         5.3328    -0.9367    -0.1983 H          1 ****  0
   20 H4         6.3992    -0.7034     1.5879 H          1 ****  0
   21 H5         7.6301    -0.8270     0.7102 H          1 ****  0
   22 H6         7.6094    -0.5824    -1.0656 H          1 ****  0
@<TRIPOS>BOND
    1     1     2 ar
    2     1     3 ar
    3     1     4 ar
    4     1     5 1
    5     5     6 1
    6     5    17 1
    7     5    18 1
    8     6     7 2
    9     6     8 am
   10     8    19 1
   11     9     8 1
   12     9    10 1
   13     9    13 1
   14     9    20 1
   15    10    11 ar
   16    10    12 ar
   17    13    14 1
   18    13    21 1
   19    13    22 1
   20    14    15 ar
   21    14    16 ar
@<TRIPOS>SUBSTRUCTURE
1   ****   1
@<TRIPOS>MOLECULE
1aco
15  14  1  0  0
SMALL
FORMAL_CHARGES
@<TRIPOS>ATOM
    1 C1         2.7181     0.2276    -0.0000 C.2        1 ****  0
    2 C2         3.8587     0.9453    -0.0000 C.2        1 ****  0
    3 C3         3.6111     2.4835    -0.0002 C.3        1 ****  0
    4 C4         1.2940     0.6891    -0.0001 C.2        1 ****  0.0000
    5 C5         5.2356     0.3016     0.0001 C.2        1 ****  0.0000
    6 C6         4.7502     3.5104    -0.0003 C.2        1 ****  0.0000
    7 O1         0.4007    -0.1649    -0.0001 O.co2      1 ****  -0.50
    8 O2         0.9352     1.9868    -0.0002 O.co2      1 ****  -0.50
    9 O3         5.3660    -0.9206     0.0003 O.co2      1 ****  -0.50
   10 O4         6.3585     1.0228     0.0000 O.co2      1 ****  -0.50
   11 O5         4.4540     4.7105    -0.0005 O.co2      1 ****  -0.50
   12 O6         6.0471     3.1817    -0.0000 O.co2      1 ****  -0.50
   13 H1         2.8543    -0.8640     0.0001 H          1 ****  0
   14 H2         2.9680     2.7126     0.8623 H          1 ****  0
   15 H3         2.9686     2.7115    -0.8635 H          1 ****  0
@<TRIPOS>BOND
    1     1     2 2
    2     1     4 1
    3     1    13 1
    4     2     3 1
    5     2     5 1
    6     3     6 1
    7     3    14 1
    8     3    15 1
    9     4     7 ar
   10     4     8 ar
   11     5     9 ar
   12     5    10 ar
   13     6    11 ar
   14     6    12 ar
@<TRIPOS>SUBSTRUCTURE
1   ****   1
@<TRIPOS>MOLECULE
1aec
55  54  1  0  0
SMALL
FORMAL_CHARGES
@<TRIPOS>ATOM
    1 S1         2.8496    -1.2088     1.3023 S.3        1 ****  0
    2 C1         1.6498     0.7761    -0.0799 C.2        1 ****  0.0000
    3 O1         0.5547     0.2075     0.0018 O.co2      1 ****  -0.50
    4 O2         1.7045     2.1306    -0.1535 O.co2      1 ****  -0.50
    5 C2         2.9153    -0.0364    -0.0788 C.3        1 ****  0
    6 C3         4.1488     0.8911     0.0643 C.3        1 ****  0
    7 O3         4.1870     1.8508    -0.9952 O.3        1 ****  0
    8 C4         5.4224     0.0833     0.0506 C.2        1 ****  0
    9 O4         5.3765    -1.1471     0.1350 O.2        1 ****  0
   10 N1         6.6638     0.7270    -0.0659 N.am       1 ****  0
   11 C5         7.8642    -0.0622    -0.1572 C.3        1 ****  0
   12 C6         7.9271    -0.8274    -1.5132 C.3        1 ****  0
   13 C7         7.7151     0.1027    -2.7528 C.3        1 ****  0
   14 C8         8.8426     1.1431    -2.9216 C.3        1 ****  0
   15 C9         7.6554    -0.7623    -4.0227 C.3        1 ****  0
   16 C10        9.1067     0.7424     0.1366 C.2        1 ****  0
   17 O5         9.0156     1.8708     0.6277 O.2        1 ****  0
   18 N2        10.3664     0.1890    -0.1354 N.am       1 ****  0
   19 C11       11.5657     0.9434     0.1075 C.3        1 ****  0
   20 C12       12.7929     0.0230    -0.0741 C.3        1 ****  0
   21 C13       14.0910     0.8369     0.1100 C.3        1 ****  0
   22 C14       15.3140    -0.0889    -0.0621 C.3        1 ****  0
   23 N3        16.5211     0.6832     0.0473 N.3        1 ****  0
   24 C15       17.7668     0.0486     0.0161 C.2        1 ****  0
   25 N4        18.8328     0.7381     0.0764 N.2        1 ****  1
   26 N5        17.8406    -1.3424    -0.0807 N.3        1 ****  0
   27 H1         1.7730    -2.0431     1.1545 H          1 ****  0
   28 H2         3.0064    -0.5838    -1.0285 H          1 ****  0
   29 H3         4.0630     1.4192     1.0254 H          1 ****  0
   30 H4         3.3597     2.3938    -0.9668 H          1 ****  0
   31 H5         6.7157     1.7555    -0.0859 H          1 ****  0
   32 H6         7.8257    -0.8254     0.6340 H          1 ****  0
   33 H7         8.9067    -1.3203    -1.6003 H          1 ****  0
   34 H8         7.1549    -1.6107    -1.5188 H          1 ****  0
   35 H9         6.7755     0.6513    -2.5907 H          1 ****  0
   36 H10        9.7934     0.5998    -3.0253 H          1 ****  0
   37 H11        8.8836     1.7511    -2.0058 H          1 ****  0
   38 H12        8.6640     1.7802    -3.8004 H          1 ****  0
   39 H13        6.8175    -1.4714    -3.9505 H          1 ****  0
   40 H14        8.5981    -1.3171    -4.1393 H          1 ****  0
   41 H15        7.5063    -0.1130    -4.8980 H          1 ****  0
   42 H16       10.4329    -0.7671    -0.5128 H          1 ****  0
   43 H17       11.5517     1.3368     1.1347 H          1 ****  0
   44 H18       11.6252     1.7786    -0.6059 H          1 ****  0
   45 H19       12.7768    -0.4150    -1.0830 H          1 ****  0
   46 H20       12.7588    -0.7837     0.6729 H          1 ****  0
   47 H21       14.1070     1.2801     1.1166 H          1 ****  0
   48 H22       14.1305     1.6384    -0.6423 H          1 ****  0
   49 H23       15.2753    -0.5690    -1.0511 H          1 ****  0
   50 H24       15.3017    -0.8618     0.7206 H          1 ****  0
   51 H25       16.4686     1.7069     0.1490 H          1 ****  0
   52 H26       18.7792     1.7642     0.1482 H          1 ****  0
   53 H27       19.7503     0.2707     0.0534 H          1 ****  0
   54 H28       16.9767    -1.9013    -0.1291 H          1 ****  0
   55 H29       18.7583    -1.8094    -0.1036 H          1 ****  0
@<TRIPOS>BOND
    1     1    27 1
    2     2     3 ar
    3     2     4 ar
    4     2     5 1
    5     5     1 1
    6     5     6 1
    7     5    28 1
    8     6     7 1
    9     6     8 1
   10     6    29 1
   11     7    30 1
   12     8     9 2
   13     8    10 am
   14    10    31 1
   15    11    10 1
   16    11    12 1
   17    11    16 1
   18    11    32 1
   19    12    13 1
   20    12    33 1
   21    12    34 1
   22    13    14 1
   23    13    15 1
   24    13    35 1
   25    14    36 1
   26    14    37 1
   27    14    38 1
   28    15    39 1
   29    15    40 1
   30    15    41 1
   31    16    17 2
   32    16    18 am
   33    18    19 1
   34    18    42 1
   35    19    20 1
   36    19    43 1
   37    19    44 1
   38    20    21 1
   39    20    45 1
   40    20    46 1
   41    21    22 1
   42    21    47 1
   43    21    48 1
   44    22    23 1
   45    22    49 1
   46    22    50 1
   47    23    24 1
   48    23    51 1
   49    24    25 2
   50    24    26 1
   51    25    52 1
   52    25    53 1
   53    26    54 1
   54    26    55 1
@<TRIPOS>SUBSTRUCTURE
1   ****   1
@<TRIPOS>MOLECULE
1ai5
19  19  1  0  0
SMALL
FORMAL_CHARGES
@<TRIPOS>ATOM
    1 C1         3.8060    -0.6060    -0.0006 C.2        1 ****  0.0000
    2 C2         2.5281    -1.4479    -0.0000 C.3        1 ****  0
    3 C3         1.2070    -0.6851    -0.0001 C.ar       1 ****  0
    4 C4         1.2086     0.7047     0.0001 C.ar       1 ****  0
    5 C5         0.0055     1.4004     0.0000 C.ar       1 ****  0
    6 N1         0.0065     2.7973     0.0002 N.pl3      1 ****  0.0000
    7 O1        -1.1121     3.4430     0.0001 O.2        1 ****  0.0000
    8 O2         1.0248     3.3854     0.0003 O.2        1 ****  0.0000
    9 C6        -1.1987     0.7066    -0.0001 C.ar       1 ****  0
   10 C7        -1.2001    -0.6832    -0.0003 C.ar       1 ****  0
   11 C8         0.0029    -1.3790    -0.0002 C.ar       1 ****  0
   12 O3         4.8987    -1.1844    -0.0008 O.co2      1 ****  -0.50
   13 O4         3.7859     0.7522    -0.0008 O.co2      1 ****  -0.50
   14 H1         2.5464    -2.1078     0.8798 H          1 ****  0
   15 H2         2.5468    -2.1077    -0.8799 H          1 ****  0
   16 H3         2.1618     1.2538     0.0002 H          1 ****  0
   17 H4        -2.1508     1.2575    -0.0001 H          1 ****  0
   18 H5        -2.1533    -1.2323    -0.0004 H          1 ****  0
   19 H6         0.0020    -2.4790    -0.0004 H          1 ****  0
@<TRIPOS>BOND
    1     1     2 1
    2     1    12 ar
    3     1    13 ar
    4     2     3 1
    5     2    14 1
    6     2    15 1
    7     3     4 ar
    8     3    11 ar
    9     4     5 ar
   10     4    16 1
   11     5     6 1
   12     5     9 ar
   13     6     7 2
   14     6     8 2
   15     9    10 ar
   16     9    17 1
   17    10    11 ar
   18    10    18 1
   19    11    19 1
@<TRIPOS>SUBSTRUCTURE
1   ****   1
@<TRIPOS>MOLECULE
1aoe
40  42  1  0  0
SMALL
FORMAL_CHARGES
@<TRIPOS>ATOM
    1 C1         1.1715    -0.6838    -0.0001 C.ar       1 ****  0
    2 C2         1.1766     0.7060    -0.0000 C.ar       1 ****  0
    3 C3        -0.0355     1.3830     0.0001 C.ar       1 ****  0
    4 N1        -1.1606     0.6800     0.0001 N.ar       1 ****  0
    5 C4        -1.1387    -0.6497    -0.0000 C.ar       1 ****  0
    6 N2         0.0087    -1.3220    -0.0001 N.ar       1 ****  1
    7 N3        -0.0903     2.8103     0.0003 N.pl3      1 ****  0
    8 C5         2.3695    -1.4046    -0.0003 C.ar       1 ****  0
    9 C6         3.6016    -0.7512    -0.0002 C.ar       1 ****  0
   10 C7         3.5795     0.6342    -0.0001 C.ar       1 ****  0
   11 C8         2.4078     1.3438    -0.0000 C.ar       1 ****  0
   12 C9         2.7224     2.6942     0.0001 C.ar       1 ****  0
   13 C10        4.1205     2.7414     0.0001 C.ar       1 ****  0
   14 N4         4.5879     1.4907    -0.0000 N.ar       1 ****  0
   15 N5        -2.3727    -1.3697     0.0000 N.pl3      1 ****  0
   16 C11        5.9837     1.1292     0.0028 C.3        1 ****  0
   17 C12        6.8805     2.3830    -0.1220 C.3        1 ****  0
   18 C13        8.3634     1.9601    -0.2135 C.3        1 ****  0
   19 C14        6.3368     0.3366     1.2901 C.3        1 ****  0
   20 C15        6.1050     1.2010     2.5548 C.3        1 ****  0
   21 H1        -0.0058    -2.3519    -0.0002 H          1 ****  0
   22 H2         0.7907     3.3439     0.0003 H          1 ****  0
   23 H3        -0.9956     3.3014     0.0004 H          1 ****  0
   24 H4         2.3397    -2.5042    -0.0004 H          1 ****  0
   25 H5         4.5487    -1.3107    -0.0003 H          1 ****  0
   26 H6         2.0241     3.5440     0.0002 H          1 ****  0
   27 H7         4.7322     3.6557     0.0002 H          1 ****  0
   28 H8        -3.2713    -0.8663     0.0001 H          1 ****  0
   29 H9        -2.3623    -2.3996    -0.0001 H          1 ****  0
   30 H10        6.1715     0.4856    -0.8693 H          1 ****  0
   31 H11        6.7379     3.0253     0.7596 H          1 ****  0
   32 H12        6.6036     2.9422    -1.0278 H          1 ****  0
   33 H13        8.5058     1.3185    -1.0956 H          1 ****  0
   34 H14        8.6397     1.4007     0.6924 H          1 ****  0
   35 H15        8.9986     2.8538    -0.3022 H          1 ****  0
   36 H16        7.3922     0.0290     1.2502 H          1 ****  0
   37 H17        5.7074    -0.5638     1.3462 H          1 ****  0
   38 H18        5.0484     1.5052     2.5885 H          1 ****  0
   39 H19        6.7361     2.0997     2.4916 H          1 ****  0
   40 H20        6.3589     0.6273     3.4583 H          1 ****  0
@<TRIPOS>BOND
    1     1     2 ar
    2     1     6 ar
    3     1     8 ar
    4     2     3 ar
    5     2    11 ar
    6     3     4 ar
    7     3     7 1
    8     4     5 ar
    9     5     6 ar
   10     5    15 1
   11     6    21 1
   12     7    22 1
   13     7    23 1
   14     8     9 ar
   15     8    24 1
   16     9    10 ar
   17     9    25 1
   18    10    11 ar
   19    10    14 ar
   20    11    12 ar
   21    12    13 ar
   22    12    26 1
   23    13    14 ar
   24    13    27 1
   25    14    16 1
   26    15    28 1
   27    15    29 1
   28    16    17 1
   29    16    19 1
   30    16    30 1
   31    17    18 1
   32    17    31 1
   33    17    32 1
   34    18    33 1
   35    18    34 1
   36    18    35 1
   37    19    20 1
   38    19    36 1
   39    19    37 1
   40    20    38 1
   41    20    39 1
   42    20    40 1
@<TRIPOS>SUBSTRUCTURE
1   ****   1
@<TRIPOS>MOLECULE
1apt
84  83  1  0  0
SMALL
FORMAL_CHARGES
@<TRIPOS>ATOM
    1 C1         3.0267    -0.0080     0.3023 C.3        1 ****  0
    2 C2         1.7933     0.7410    -0.2656 C.3        1 ****  0
    3 C3         1.8442     0.7833    -1.8091 C.3        1 ****  0
    4 C4         0.5131     0.0036     0.1672 C.3        1 ****  0
    5 C5         4.3088     0.7401     0.0206 C.2        1 ****  0
    6 O1         4.2910     1.8139    -0.5909 O.2        1 ****  0
    7 N1         5.5223     0.2549     0.5288 N.am       1 ****  0
    8 C6         6.7401     0.9954     0.3183 C.3        1 ****  0
    9 C7         7.8764     0.0431     0.0893 C.2        1 ****  0
   10 O2         7.7016    -1.1711     0.2262 O.2        1 ****  0
   11 C8         7.0837     1.8421     1.5694 C.3        1 ****  0
   12 C9         7.2471     0.9110     2.7858 C.3        1 ****  0
   13 C10        5.9833     2.8798     1.8632 C.3        1 ****  0
   14 N2         9.1477     0.5535    -0.2267 N.am       1 ****  0
   15 C11       10.3257    -0.2838    -0.2470 C.3        1 ****  0
   16 C12       11.5005     0.5599     0.1571 C.2        1 ****  0
   17 O3        11.3074     1.7056     0.5748 O.2        1 ****  0
   18 C13       10.6127    -0.8498    -1.6648 C.3        1 ****  0
   19 C14       10.7891     0.3138    -2.6584 C.3        1 ****  0
   20 C15        9.4829    -1.7757    -2.1525 C.3        1 ****  0
   21 C16       15.2491     0.0605    -0.0399 C.3        1 ****  0
   22 C17       13.9744     0.9080     0.1404 C.3        1 ****  0
   23 C18       13.9978     1.5741     1.5337 C.3        1 ****  0
   24 C19       14.0389     0.5036     2.6384 C.3        1 ****  0
   25 C20       14.1068     1.2049     4.0050 C.3        1 ****  0
   26 C21       14.1739     0.1527     5.1239 C.3        1 ****  0
   27 C22       16.4925     0.9658     0.0851 C.3        1 ****  0
   28 C23       17.7381     0.1383    -0.0367 C.2        1 ****  0
   29 C24       20.0113    -0.2361    -0.1010 C.3        1 ****  0
   30 C25       21.3899     0.4439    -0.0174 C.3        1 ****  0
   31 O4        15.2345    -0.5542    -1.3302 O.3        1 ****  0
   32 O5        17.6567    -1.0857    -0.1895 O.2        1 ****  0
   33 O6        18.9856     0.7502     0.0322 O.3        1 ****  0
   34 N3        12.8094     0.0654    -0.0244 N.am       1 ****  0
   35 N4        14.2507     0.8309     6.4258 N.4        1 ****  1
   36 H1         3.0839    -1.0073    -0.1541 H          1 ****  0
   37 H2         2.9079    -0.1265     1.3894 H          1 ****  0
   38 H3         1.7969     1.7705     0.1218 H          1 ****  0
   39 H4         1.8583    -0.2466    -2.1951 H          1 ****  0
   40 H5         2.7638     1.2991    -2.1228 H          1 ****  0
   41 H6         0.9654     1.3164    -2.2008 H          1 ****  0
   42 H7         0.4524    -0.0206     1.2653 H          1 ****  0
   43 H8         0.5277    -1.0248    -0.2229 H          1 ****  0
   44 H9        -0.3646     0.5317    -0.2336 H          1 ****  0
   45 H10        5.5431    -0.6316     1.0529 H          1 ****  0
   46 H11        6.5943     1.6507    -0.5532 H          1 ****  0
   47 H12        8.0221     2.3819     1.3741 H          1 ****  0
   48 H13        8.0592     0.1939     2.5950 H          1 ****  0
   49 H14        6.3087     0.3643     2.9606 H          1 ****  0
   50 H15        7.4912     1.5102     3.6754 H          1 ****  0
   51 H16        5.0335     2.3497     2.0272 H          1 ****  0
   52 H17        5.8789     3.5399     0.9895 H          1 ****  0
   53 H18        6.2434     3.4713     2.7535 H          1 ****  0
   54 H19        9.2424     1.5544    -0.4504 H          1 ****  0
   55 H20       10.1604    -1.1286     0.4378 H          1 ****  0
   56 H21       11.5358    -1.4453    -1.6084 H          1 ****  0
   57 H22       11.6315     0.9448    -2.3388 H          1 ****  0
   58 H23        9.8696     0.9169    -2.6843 H          1 ****  0
   59 H24       10.9923    -0.0872    -3.6623 H          1 ****  0
   60 H25        8.5447    -1.2016    -2.1677 H          1 ****  0
   61 H26        9.3805    -2.6058    -1.4380 H          1 ****  0
   62 H27        9.7074    -2.1641    -3.1569 H          1 ****  0
   63 H28       15.2837    -0.7178     0.7366 H          1 ****  0
   64 H29       13.9323     1.7019    -0.6199 H          1 ****  0
   65 H30       13.0961     2.1915     1.6589 H          1 ****  0
   66 H31       14.8872     2.2162     1.6159 H          1 ****  0
   67 H32       13.1303    -0.1142     2.5868 H          1 ****  0
   68 H33       14.9282    -0.1301     2.5059 H          1 ****  0
   69 H34       13.2110     1.8282     4.1428 H          1 ****  0
   70 H35       15.0037     1.8404     4.0464 H          1 ****  0
   71 H36       15.0660    -0.4758     4.9852 H          1 ****  0
   72 H37       13.2721    -0.4763     5.0910 H          1 ****  0
   73 H38       16.4831     1.4694     1.0630 H          1 ****  0
   74 H39       16.4767     1.7218    -0.7138 H          1 ****  0
   75 H40       19.9176    -0.9746     0.7089 H          1 ****  0
   76 H41       19.9112    -0.7422    -1.0725 H          1 ****  0
   77 H42       21.4924     0.9497     0.9540 H          1 ****  0
   78 H43       21.4853     1.1828    -0.8267 H          1 ****  0
   79 H44       22.1801    -0.3144    -0.1198 H          1 ****  0
   80 H45       16.0523    -1.1002    -1.4458 H          1 ****  0
   81 H46       12.9395    -0.9234    -0.2817 H          1 ****  0
   82 H47       13.4157     1.4191     6.5585 H          1 ****  0
   83 H48       15.0947     1.4203     6.4589 H          1 ****  0
   84 H49       14.2958     0.1274     7.1768 H          1 ****  0
@<TRIPOS>BOND
    1     1     2 1
    2     1     5 1
    3     1    36 1
    4     1    37 1
    5     2     3 1
    6     2     4 1
    7     2    38 1
    8     3    39 1
    9     3    40 1
   10     3    41 1
   11     4    42 1
   12     4    43 1
   13     4    44 1
   14     5     6 2
   15     5     7 am
   16     7    45 1
   17     8     7 1
   18     8     9 1
   19     8    11 1
   20     8    46 1
   21     9    10 2
   22     9    14 am
   23    11    12 1
   24    11    13 1
   25    11    47 1
   26    12    48 1
   27    12    49 1
   28    12    50 1
   29    13    51 1
   30    13    52 1
   31    13    53 1
   32    14    54 1
   33    15    14 1
   34    15    16 1
   35    15    18 1
   36    15    55 1
   37    16    17 2
   38    16    34 am
   39    18    19 1
   40    18    20 1
   41    18    56 1
   42    19    57 1
   43    19    58 1
   44    19    59 1
   45    20    60 1
   46    20    61 1
   47    20    62 1
   48    21    22 1
   49    21    27 1
   50    21    31 1
   51    21    63 1
   52    22    23 1
   53    22    34 1
   54    22    64 1
   55    23    24 1
   56    23    65 1
   57    23    66 1
   58    24    25 1
   59    24    67 1
   60    24    68 1
   61    25    26 1
   62    25    69 1
   63    25    70 1
   64    26    35 1
   65    26    71 1
   66    26    72 1
   67    27    28 1
   68    27    73 1
   69    27    74 1
   70    28    32 2
   71    28    33 1
   72    29    30 1
   73    29    33 1
   74    29    75 1
   75    29    76 1
   76    30    77 1
   77    30    78 1
   78    30    79 1
   79    31    80 1
   80    34    81 1
   81    35    82 1
   82    35    83 1
   83    35    84 1
@<TRIPOS>SUBSTRUCTURE
1   ****   1
@<TRIPOS>MOLECULE
1apu
81  80  1  0  0
SMALL
FORMAL_CHARGES
@<TRIPOS>ATOM
    1 C1         2.9603    -0.0302     0.2250 C.3        1 ****  0
    2 C2         1.7153     0.7932    -0.2027 C.3        1 ****  0
    3 C3         0.4437     0.0020     0.1563 C.3        1 ****  0
    4 C4         1.7223     1.0558    -1.7248 C.3        1 ****  0
    5 C5         4.2476     0.7407     0.0248 C.2        1 ****  0
    6 O1         4.2407     1.8575    -0.5031 O.2        1 ****  0
    7 N1         5.4518     0.2155     0.5267 N.am       1 ****  0
    8 C6         6.6837     0.9636     0.4210 C.3        1 ****  0
    9 C7         7.8300     0.0084     0.2217 C.2        1 ****  0
   10 O2         7.6399    -1.2059     0.3184 O.2        1 ****  0
   11 C8         6.9508     1.7584     1.7241 C.3        1 ****  0
   12 C9         7.0221     0.7794     2.9105 C.3        1 ****  0
   13 C10        5.8468     2.8015     1.9871 C.3        1 ****  0
   14 N2         9.1170     0.5172    -0.0655 N.am       1 ****  0
   15 C11       10.2732    -0.3436    -0.2794 C.3        1 ****  0
   16 C12       11.5262     0.4548     0.0073 C.2        1 ****  0
   17 O3        11.4350     1.5890     0.4839 O.2        1 ****  0
   18 C13       10.3457    -0.8215    -1.7560 C.3        1 ****  0
   19 C14       10.3120     0.4099    -2.6817 C.3        1 ****  0
   20 C15        9.1925    -1.7703    -2.1302 C.3        1 ****  0
   21 N3        12.7968    -0.0734    -0.3126 N.am       1 ****  0
   22 C16       14.1142     0.0736    -1.0872 C.3        1 ****  0
   23 C17       14.1206     1.5561    -1.6088 C.3        1 ****  0
   24 C18       14.6490     0.6528    -2.7764 C.3        1 ****  0
   25 C19       14.8168     1.5119    -4.0402 C.3        1 ****  0
   26 C20       13.7203    -0.5337    -3.0985 C.3        1 ****  0
   27 C21       15.1115     0.7116     0.8235 C.3        1 ****  0
   28 O4        15.1427    -0.7195     1.2561 O.3        1 ****  0
   29 C22       16.4707     0.9340     0.0559 C.3        1 ****  0
   30 C23       17.7427     0.1396     0.1445 C.2        1 ****  0
   31 O5        17.6994    -1.0930     0.2267 O.2        1 ****  0
   32 O6        18.9726     0.7926     0.0972 O.3        1 ****  0
   33 C24       20.0308    -0.1671     0.1665 C.3        1 ****  0
   34 C25       21.3869     0.5551     0.0597 C.3        1 ****  0
   35 H1         2.8656    -0.3017     1.2867 H          1 ****  0
   36 H2         3.0012    -0.9569    -0.3662 H          1 ****  0
   37 H3         1.7366     1.7587     0.3241 H          1 ****  0
   38 H4         0.4098    -0.1745     1.2415 H          1 ****  0
   39 H5         0.4438    -0.9620    -0.3736 H          1 ****  0
   40 H6        -0.4418     0.5811    -0.1447 H          1 ****  0
   41 H7         1.7233     0.0904    -2.2520 H          1 ****  0
   42 H8         2.6364     1.6092    -1.9857 H          1 ****  0
   43 H9         0.8356     1.6394    -2.0133 H          1 ****  0
   44 H10        5.4557    -0.7121     0.9745 H          1 ****  0
   45 H11        6.5953     1.6577    -0.4278 H          1 ****  0
   46 H12        7.9053     2.2934     1.6107 H          1 ****  0
   47 H13        7.8380     0.0599     2.7473 H          1 ****  0
   48 H14        6.0685     0.2385     3.0010 H          1 ****  0
   49 H15        7.2116     1.3410     3.8371 H          1 ****  0
   50 H16        4.8820     2.2789     2.0657 H          1 ****  0
   51 H17        5.8090     3.4949     1.1340 H          1 ****  0
   52 H18        6.0541     3.3545     2.9151 H          1 ****  0
   53 H19        9.2427     1.5377    -0.1260 H          1 ****  0
   54 H20       10.1855    -1.2176     0.3827 H          1 ****  0
   55 H21       11.2832    -1.3839    -1.8782 H          1 ****  0
   56 H22       11.1717     1.0614    -2.4661 H          1 ****  0
   57 H23        9.3777     0.9686    -2.5242 H          1 ****  0
   58 H24       10.3631     0.0778    -3.7292 H          1 ****  0
   59 H25        8.2445    -1.2388    -1.9600 H          1 ****  0
   60 H26        9.2342    -2.6399    -1.4579 H          1 ****  0
   61 H27        9.2712    -2.0907    -3.1795 H          1 ****  0
   62 H28       12.8951    -1.0636    -0.5783 H          1 ****  0
   63 H29       14.2704    -0.6392    -1.9103 H          1 ****  0
   64 H30       13.1475     1.9796    -1.8978 H          1 ****  0
   65 H31       14.8199     2.3922    -1.4606 H          1 ****  0
   66 H32       15.6094     0.2308    -2.4453 H          1 ****  0
   67 H33       15.5390     2.3188    -3.8470 H          1 ****  0
   68 H34       13.8472     1.9466    -4.3246 H          1 ****  0
   69 H35       15.1874     0.8820    -4.8623 H          1 ****  0
   70 H36       12.7338    -0.1254    -3.3634 H          1 ****  0
   71 H37       13.6147    -1.1352    -2.1835 H          1 ****  0
   72 H38       14.1224    -1.1436    -3.9208 H          1 ****  0
   73 H39       14.9702     1.4433     1.6325 H          1 ****  0
   74 H40       14.3708    -1.3380     1.2135 H          1 ****  0
   75 H41       16.4862     1.5468    -0.8574 H          1 ****  0
   76 H42       16.3905     1.5928     0.9332 H          1 ****  0
   77 H43       19.9319    -0.8841    -0.6618 H          1 ****  0
   78 H44       19.9766    -0.7043     1.1249 H          1 ****  0
   79 H45       21.4880     1.2718     0.8880 H          1 ****  0
   80 H46       21.4427     1.0927    -0.8983 H          1 ****  0
   81 H47       22.2012    -0.1826     0.1130 H          1 ****  0
@<TRIPOS>BOND
    1     1     2 1
    2     1     5 1
    3     1    35 1
    4     1    36 1
    5     2     3 1
    6     2     4 1
    7     2    37 1
    8     3    38 1
    9     3    39 1
   10     3    40 1
   11     4    41 1
   12     4    42 1
   13     4    43 1
   14     5     6 2
   15     5     7 am
   16     7    44 1
   17     8     7 1
   18     8     9 1
   19     8    11 1
   20     8    45 1
   21     9    10 2
   22     9    14 am
   23    11    12 1
   24    11    13 1
   25    11    46 1
   26    12    47 1
   27    12    48 1
   28    12    49 1
   29    13    50 1
   30    13    51 1
   31    13    52 1
   32    14    53 1
   33    15    14 1
   34    15    16 1
   35    15    18 1
   36    15    54 1
   37    16    17 2
   38    16    21 am
   39    18    19 1
   40    18    20 1
   41    18    55 1
   42    19    56 1
   43    19    57 1
   44    19    58 1
   45    20    59 1
   46    20    60 1
   47    20    61 1
   48    21    62 1
   49    22    21 1
   50    22    23 1
   51    22    27 1
   52    22    63 1
   53    23    24 1
   54    23    64 1
   55    23    65 1
   56    24    25 1
   57    24    26 1
   58    24    66 1
   59    25    67 1
   60    25    68 1
   61    25    69 1
   62    26    70 1
   63    26    71 1
   64    26    72 1
   65    27    28 1
   66    27    29 1
   67    27    73 1
   68    28    74 1
   69    29    30 1
   70    29    75 1
   71    29    76 1
   72    30    31 2
   73    30    32 1
   74    32    33 1
   75    33    34 1
   76    33    77 1
   77    33    78 1
   78    34    79 1
   79    34    80 1
   80    34    81 1
@<TRIPOS>SUBSTRUCTURE
1   ****   1
@<TRIPOS>MOLECULE
1aqw
36  35  1  0  0
SMALL
FORMAL_CHARGES
@<TRIPOS>ATOM
    1 N1         2.8257    -1.0148    -1.1602 N.4        1 ****  1
    2 C1         2.8524    -0.1325     0.0141 C.3        1 ****  0
    3 C2         1.6327     0.7405     0.0156 C.2        1 ****  0.0000
    4 O1         0.5148     0.2406    -0.1521 O.co2      1 ****  -0.50
    5 C3         4.1140     0.7459    -0.0214 C.3        1 ****  0
    6 C4         5.3628    -0.1519    -0.0368 C.3        1 ****  0
    7 C5         6.5893     0.7082    -0.0317 C.2        1 ****  0
    8 O2         6.4753     1.9388     0.0264 O.2        1 ****  0
    9 O3         1.7579     2.0809     0.1955 O.co2      1 ****  -0.50
   10 N2         7.8568     0.1178    -0.0640 N.am       1 ****  0
   11 C6         9.1094     0.2479    -0.9076 C.3        1 ****  0
   12 C7        10.2556     0.0695     0.0965 C.2        1 ****  0
   13 O4        10.1439    -1.0958     0.4976 O.2        1 ****  0
   14 C8         9.1515     1.7740    -1.3324 C.3        1 ****  0
   15 S1         9.2380     0.6696    -2.7624 S.3        1 ****  0
   16 N3        11.5144     0.5850    -0.2066 N.am       1 ****  0
   17 C9        12.6800    -0.2351    -0.0605 C.3        1 ****  0
   18 C10       13.9007     0.6369    -0.0411 C.2        1 ****  0.0000
   19 O5        15.0230     0.1283     0.0567 O.co2      1 ****  -0.50
   20 O6        13.7709     1.9865    -0.1238 O.co2      1 ****  -0.50
   21 H1         2.8113    -0.4446    -2.0178 H          1 ****  0
   22 H2         1.9820    -1.6047    -1.1272 H          1 ****  0
   23 H3         3.6634    -1.6140    -1.1607 H          1 ****  0
   24 H4         2.8646    -0.7465     0.9268 H          1 ****  0
   25 H5         4.1008     1.3705    -0.9268 H          1 ****  0
   26 H6         4.1381     1.3911     0.8692 H          1 ****  0
   27 H7         5.3566    -0.7760    -0.9426 H          1 ****  0
   28 H8         5.3631    -0.7962     0.8547 H          1 ****  0
   29 H9         7.9422    -0.9081    -0.0994 H          1 ****  0
   30 H10        9.1791    -0.4353    -1.7669 H          1 ****  0
   31 H11        8.2685     2.4236    -1.4239 H          1 ****  0
   32 H12       10.0612     2.3909    -1.2906 H          1 ****  0
   33 H13        8.1059    -0.0998    -2.8195 H          1 ****  0
   34 H14       11.6069     1.5565    -0.5359 H          1 ****  0
   35 H15       12.6169    -0.7984     0.8821 H          1 ****  0
   36 H16       12.7446    -0.9369    -0.9051 H          1 ****  0
@<TRIPOS>BOND
    1     1    21 1
    2     1    22 1
    3     1    23 1
    4     2     1 1
    5     2     3 1
    6     2     5 1
    7     2    24 1
    8     3     4 ar
    9     3     9 ar
   10     5     6 1
   11     5    25 1
   12     5    26 1
   13     6     7 1
   14     6    27 1
   15     6    28 1
   16     7     8 2
   17     7    10 am
   18    10    29 1
   19    11    10 1
   20    11    12 1
   21    11    14 1
   22    11    30 1
   23    12    13 2
   24    12    16 am
   25    14    15 1
   26    14    31 1
   27    14    32 1
   28    15    33 1
   29    16    17 1
   30    16    34 1
   31    17    18 1
   32    17    35 1
   33    17    36 1
   34    18    19 ar
   35    18    20 ar
@<TRIPOS>SUBSTRUCTURE
1   ****   1
@<TRIPOS>MOLECULE
1ase
25  25  1  0  0
SMALL
FORMAL_CHARGES
@<TRIPOS>ATOM
    1 N1         1.1765    -0.6938    -0.0001 N.ar       1 ****  1
    2 O1         2.2953    -1.3403    -0.0000 O.2        1 ****  -1
    3 C1         0.0322    -1.3707    -0.0003 C.ar       1 ****  0
    4 C2         0.0570    -2.8685    -0.0004 C.3        1 ****  0
    5 C3        -1.1871    -0.7036    -0.0003 C.ar       1 ****  0
    6 O2        -2.3773    -1.4184    -0.0005 O.3        1 ****  0
    7 C4        -1.2031     0.6827    -0.0001 C.ar       1 ****  0
    8 C5        -2.4723     1.4136    -0.0002 C.2        1 ****  0
    9 C6         0.0065     1.3611     0.0000 C.ar       1 ****  0
   10 C7         1.1915     0.6355     0.0001 C.ar       1 ****  0
   11 C8         0.0372     2.8586     0.0004 C.3        1 ****  0
   12 O3         1.3898     3.3151     0.0715 O.3        1 ****  0
   13 P1         1.4052     4.8642     0.0474 P.3        1 ****  0
   14 O4         2.7078     5.3158     0.1183 O.2        1 ****  0
   15 O5         0.7695     5.3533    -1.2398 O.2        1 ****  -1
   16 O6         0.6201     5.3953     1.2314 O.2        1 ****  -1
   17 O7        -3.5432     0.7958    -0.0004 O.2        1 ****  0
   18 H1         0.6445    -3.1495     0.8861 H          1 ****  0
   19 H2         0.6446    -3.1493    -0.8869 H          1 ****  0
   20 H3        -0.9439    -3.3249    -0.0006 H          1 ****  0
   21 H4        -2.3204    -2.0047     0.7953 H          1 ****  0
   22 H5        -2.4727     2.5136     0.0000 H          1 ****  0
   23 H6         2.1542     1.1677     0.0002 H          1 ****  0
   24 H7        -0.5218     3.2369     0.8690 H          1 ****  0
   25 H8        -0.4271     3.2345    -0.9232 H          1 ****  0
@<TRIPOS>BOND
    1     1     2 1
    2     1     3 ar
    3     1    10 ar
    4     3     4 1
    5     3     5 ar
    6     4    18 1
    7     4    19 1
    8     4    20 1
    9     5     6 1
   10     5     7 ar
   11     6    21 1
   12     7     8 1
   13     7     9 ar
   14     8    17 2
   15     8    22 1
   16     9    10 ar
   17     9    11 1
   18    10    23 1
   19    11    12 1
   20    11    24 1
   21    11    25 1
   22    12    13 1
   23    13    14 2
   24    13    15 1
   25    13    16 1
@<TRIPOS>SUBSTRUCTURE
1   ****   1
@<TRIPOS>MOLECULE
1atl
47  47  1  0  0
SMALL
FORMAL_CHARGES
@<TRIPOS>ATOM
    1 C1         6.1399    -0.7056    -0.1192 C.2        1 ****  0
    2 O1         6.2428     0.5248    -0.0609 O.2        1 ****  0
    3 C2         7.3633    -1.5638    -0.1644 C.3        1 ****  0
    4 C3         7.1663    -2.5807    -1.3078 C.3        1 ****  0
    5 S1         6.9575    -1.6783    -2.8642 S.3        1 ****  0
    6 C4         8.6353    -0.6585    -0.3208 C.3        1 ****  0
    7 C5        10.0041    -1.4132    -0.1499 C.3        1 ****  0
    8 C6        10.3565    -2.3308    -1.3447 C.3        1 ****  0
    9 C7        11.1271    -0.3709    -0.0094 C.3        1 ****  0
   10 N1         4.8839    -1.3058    -0.1576 N.am       1 ****  0
   11 C8         3.7066    -1.3426    -0.9745 C.3        1 ****  0
   12 C9         3.6373     0.0102    -1.6664 C.2        1 ****  0.0000
   13 O2         3.4998    -0.7806    -2.6060 O.co2      1 ****  -0.50
   14 C10        2.4985    -1.4428    -0.0029 C.3        1 ****  0
   15 C11        1.1920    -0.6884    -0.0001 C.ar       1 ****  0
   16 C12       -0.0114    -1.3835    -0.0003 C.ar       1 ****  0
   17 C13        1.1928     0.7015     0.0001 C.ar       1 ****  0
   18 C14       -1.2147    -0.6886    -0.0003 C.ar       1 ****  0
   19 C15       -0.0106     1.3965     0.0001 C.ar       1 ****  0
   20 C16       -1.2141     0.7012    -0.0001 C.ar       1 ****  0
   21 O3        -2.4271     1.4004    -0.0001 O.3        1 ****  0
   22 O4         3.7403     1.3415    -1.9073 O.co2      1 ****  -0.50
   23 C17       -3.5428     0.4982    -0.0003 C.3        1 ****  0
   24 H1         7.5188    -2.1288     0.7666 H          1 ****  0
   25 H2         8.0493    -3.2330    -1.3774 H          1 ****  0
   26 H3         6.2698    -3.1875    -1.1125 H          1 ****  0
   27 H4         8.0717    -0.9217    -3.1149 H          1 ****  0
   28 H5         8.6139    -0.1884    -1.3151 H          1 ****  0
   29 H6         8.5856     0.1528     0.4204 H          1 ****  0
   30 H7         9.9058    -2.0504     0.7413 H          1 ****  0
   31 H8        10.3889    -1.7046    -2.2485 H          1 ****  0
   32 H9         9.5419    -3.0614    -1.4564 H          1 ****  0
   33 H10       11.3188    -2.8402    -1.1883 H          1 ****  0
   34 H11       10.9449     0.2588     0.8740 H          1 ****  0
   35 H12       11.1678     0.2592    -0.9101 H          1 ****  0
   36 H13       12.0889    -0.8908     0.1107 H          1 ****  0
   37 H14        4.8056    -2.3319    -0.1134 H          1 ****  0
   38 H15        3.7094    -2.1771    -1.6912 H          1 ****  0
   39 H16        2.4672    -2.2132    -0.7875 H          1 ****  0
   40 H17        2.6271    -1.9423     0.9686 H          1 ****  0
   41 H18       -0.0113    -2.4835    -0.0004 H          1 ****  0
   42 H19        2.1457     1.2512     0.0003 H          1 ****  0
   43 H20       -2.1675    -1.2383    -0.0004 H          1 ****  0
   44 H21       -0.0107     2.4965     0.0003 H          1 ****  0
   45 H22       -3.4858    -0.1373     0.8957 H          1 ****  0
   46 H23       -3.4857    -0.1371    -0.8965 H          1 ****  0
   47 H24       -4.4874     1.0619    -0.0003 H          1 ****  0
@<TRIPOS>BOND
    1     1     2 2
    2     1     3 1
    3     1    10 am
    4     3     4 1
    5     3     6 1
    6     3    24 1
    7     4     5 1
    8     4    25 1
    9     4    26 1
   10     5    27 1
   11     6     7 1
   12     6    28 1
   13     6    29 1
   14     7     8 1
   15     7     9 1
   16     7    30 1
   17     8    31 1
   18     8    32 1
   19     8    33 1
   20     9    34 1
   21     9    35 1
   22     9    36 1
   23    10    37 1
   24    11    10 1
   25    11    12 1
   26    11    14 1
   27    11    38 1
   28    12    13 ar
   29    12    22 ar
   30    14    15 1
   31    14    39 1
   32    14    40 1
   33    15    16 ar
   34    15    17 ar
   35    16    18 ar
   36    16    41 1
   37    17    19 ar
   38    17    42 1
   39    18    20 ar
   40    18    43 1
   41    19    20 ar
   42    19    44 1
   43    20    21 1
   44    21    23 1
   45    23    45 1
   46    23    46 1
   47    23    47 1
@<TRIPOS>SUBSTRUCTURE
1   ****   1
@<TRIPOS>MOLECULE
1azm
18  18  1  0  0
SMALL
FORMAL_CHARGES
@<TRIPOS>ATOM
    1 C1         0.5799    -0.9964    -0.0001 C.ar       1 ****  0
    2 C2        -0.1402     1.2336     0.0001 C.ar       1 ****  0
    3 C3        -1.5863     3.3225    -0.0001 C.2        1 ****  0
    4 C4        -2.9058     2.5947    -0.0009 C.3        1 ****  0
    5 N1         0.8877    -3.4731    -1.3312 N.am       1 ****  -1
    6 N2        -1.1364     0.3506    -0.0003 N.ar       1 ****  0
    7 N3        -0.7447    -0.8627    -0.0004 N.ar       1 ****  0
    8 N4        -0.3267     2.6450     0.0003 N.am       1 ****  0
    9 O1         2.9129    -2.3215    -0.0972 O.2        1 ****  0
   10 O2         1.0952    -3.2902     1.2832 O.2        1 ****  0
   11 O3        -1.5943     4.5588     0.0002 O.2        1 ****  0
   12 S1         1.4161    -2.5483    -0.0003 S.O2       1 ****  0
   13 S2         1.3587     0.4863     0.0003 S.3        1 ****  0
   14 H1        -2.8422     1.9384     0.8796 H          1 ****  0
   15 H2        -2.8414     1.9389    -0.8817 H          1 ****  0
   16 H3        -3.7980     3.2381    -0.0011 H          1 ****  0
   17 H4         1.1822    -4.4556    -1.4250 H          1 ****  0
   18 H5         0.5209     3.2303     0.0008 H          1 ****  0
@<TRIPOS>BOND
    1     1     7 ar
    2     1    12 1
    3     1    13 ar
    4     2     6 ar
    5     2     8 1
    6     2    13 ar
    7     3     4 1
    8     3     8 am
    9     3    11 2
   10     4    14 1
   11     4    15 1
   12     4    16 1
   13     5    12 1
   14     5    17 1
   15     6     7 ar
   16     8    18 1
   17     9    12 2
   18    10    12 2
@<TRIPOS>SUBSTRUCTURE
1   ****   1
@<TRIPOS>MOLECULE
1b58
68  68  1  0  0
SMALL
FORMAL_CHARGES
@<TRIPOS>ATOM
    1 N1         7.3581    -2.3872    -0.8496 N.4        1 ****  1
    2 C1         7.3784    -1.5382     0.3496 C.3        1 ****  0
    3 C2         6.1431    -0.6952     0.4086 C.2        1 ****  0
    4 O1         6.2242     0.4875     0.7589 O.2        1 ****  0
    5 C3         8.6337    -0.6511     0.3775 C.3        1 ****  0
    6 C4         9.8839    -1.5469     0.3785 C.3        1 ****  0
    7 C5        11.1460    -0.6717     0.4665 C.3        1 ****  0
    8 C6        12.3918    -1.5758     0.4998 C.3        1 ****  0
    9 N2        13.5993    -0.7448     0.6052 N.4        1 ****  1
   10 N3         4.9026    -1.2563     0.0848 N.am       1 ****  0
   11 C7         3.6947    -0.4970     0.2418 C.3        1 ****  0
   12 C8         3.6495     0.0333     1.6503 C.2        1 ****  0
   13 O2         3.8809     1.2289     1.8614 O.2        1 ****  0
   14 C9         2.4983    -1.4431     0.0034 C.3        1 ****  0
   15 C10        1.1920    -0.6884    -0.0001 C.ar       1 ****  0
   16 C11        1.1928     0.7015     0.0001 C.ar       1 ****  0
   17 C12       -0.0114    -1.3835    -0.0003 C.ar       1 ****  0
   18 C13       -0.0106     1.3965     0.0001 C.ar       1 ****  0
   19 C14       -1.2147    -0.6886    -0.0003 C.ar       1 ****  0
   20 C15       -1.2141     0.7012    -0.0001 C.ar       1 ****  0
   21 O3        -2.4168     1.3951    -0.0001 O.3        1 ****  0
   22 N4         3.3768    -0.8255     2.7193 N.am       1 ****  0
   23 C16        3.4610    -0.3258     4.0615 C.3        1 ****  0
   24 C17        4.8442     0.2073     4.2940 C.2        1 ****  0.0000
   25 O4         5.8106    -0.5634     4.2995 O.co2      1 ****  -0.50
   26 C18        3.2049    -1.4737     5.0517 C.3        1 ****  0
   27 C19        3.3133    -0.9082     6.4818 C.3        1 ****  0
   28 C20        3.0689    -2.0178     7.5180 C.3        1 ****  0
   29 C21        3.1795    -1.4149     8.9324 C.3        1 ****  0
   30 N5         2.9472    -2.4614     9.9373 N.4        1 ****  1
   31 O5         5.0346     1.5374     4.4833 O.co2      1 ****  -0.50
   32 H1         8.1997    -2.9811    -0.8503 H          1 ****  0
   33 H2         7.3718    -1.7836    -1.6841 H          1 ****  0
   34 H3         6.5129    -2.9758    -0.8557 H          1 ****  0
   35 H4         7.4048    -2.1932     1.2330 H          1 ****  0
   36 H5         8.6465    -0.0041    -0.5121 H          1 ****  0
   37 H6         8.6264    -0.0305     1.2856 H          1 ****  0
   38 H7         9.9130    -2.1382    -0.5486 H          1 ****  0
   39 H8         9.8481    -2.2252     1.2437 H          1 ****  0
   40 H9        11.1963    -0.0106    -0.4113 H          1 ****  0
   41 H10       11.1096    -0.0643     1.3829 H          1 ****  0
   42 H11       12.3335    -2.2485     1.3682 H          1 ****  0
   43 H12       12.4378    -2.1725    -0.4231 H          1 ****  0
   44 H13       13.5580    -0.1863     1.4696 H          1 ****  0
   45 H14       13.6550    -0.1145    -0.2075 H          1 ****  0
   46 H15       14.4328    -1.3496     0.6275 H          1 ****  0
   47 H16        4.8560    -2.2225    -0.2693 H          1 ****  0
   48 H17        3.6558     0.3404    -0.4704 H          1 ****  0
   49 H18        2.4733    -2.2040     0.7974 H          1 ****  0
   50 H19        2.6249    -1.9501    -0.9646 H          1 ****  0
   51 H20        2.1457     1.2512     0.0003 H          1 ****  0
   52 H21       -0.0113    -2.4835    -0.0004 H          1 ****  0
   53 H22       -0.0107     2.4965     0.0003 H          1 ****  0
   54 H23       -2.1675    -1.2383    -0.0004 H          1 ****  0
   55 H24       -2.3730     1.9819    -0.7962 H          1 ****  0
   56 H25        3.1180    -1.8070     2.5449 H          1 ****  0
   57 H26        2.7136     0.4679     4.2081 H          1 ****  0
   58 H27        2.1961    -1.8821     4.8916 H          1 ****  0
   59 H28        3.9584    -2.2621     4.9085 H          1 ****  0
   60 H29        4.3178    -0.4857     6.6314 H          1 ****  0
   61 H30        2.5657    -0.1128     6.6179 H          1 ****  0
   62 H31        3.8233    -2.8092     7.3962 H          1 ****  0
   63 H32        2.0628    -2.4392     7.3758 H          1 ****  0
   64 H33        2.4285    -0.6202     9.0525 H          1 ****  0
   65 H34        4.1847    -0.9908     9.0722 H          1 ****  0
   66 H35        3.6507    -3.2054     9.8258 H          1 ****  0
   67 H36        2.0060    -2.8588     9.8065 H          1 ****  0
   68 H37        3.0214    -2.0570    10.8817 H          1 ****  0
@<TRIPOS>BOND
    1     1    32 1
    2     1    33 1
    3     1    34 1
    4     2     1 1
    5     2     3 1
    6     2     5 1
    7     2    35 1
    8     3     4 2
    9     3    10 am
   10     5     6 1
   11     5    36 1
   12     5    37 1
   13     6     7 1
   14     6    38 1
   15     6    39 1
   16     7     8 1
   17     7    40 1
   18     7    41 1
   19     8     9 1
   20     8    42 1
   21     8    43 1
   22     9    44 1
   23     9    45 1
   24     9    46 1
   25    10    47 1
   26    11    10 1
   27    11    12 1
   28    11    14 1
   29    11    48 1
   30    12    13 2
   31    12    22 am
   32    14    15 1
   33    14    49 1
   34    14    50 1
   35    15    16 ar
   36    15    17 ar
   37    16    18 ar
   38    16    51 1
   39    17    19 ar
   40    17    52 1
   41    18    20 ar
   42    18    53 1
   43    19    20 ar
   44    19    54 1
   45    20    21 1
   46    21    55 1
   47    22    56 1
   48    23    22 1
   49    23    24 1
   50    23    26 1
   51    23    57 1
   52    24    25 ar
   53    24    31 ar
   54    26    27 1
   55    26    58 1
   56    26    59 1
   57    27    28 1
   58    27    60 1
   59    27    61 1
   60    28    29 1
   61    28    62 1
   62    28    63 1
   63    29    30 1
   64    29    64 1
   65    29    65 1
   66    30    66 1
   67    30    67 1
   68    30    68 1
@<TRIPOS>SUBSTRUCTURE
1   ****   1
@<TRIPOS>MOLECULE
1b59
47  48  1  0  0
SMALL
FORMAL_CHARGES
@<TRIPOS>ATOM
    1 C1         1.4201    -0.7556     0.3299 C.3        1 ****  0
    2 C2         1.3616     0.6579    -0.1475 C.2        1 ****  0
    3 C3         0.0760     1.4439     0.0050 C.3        1 ****  0
    4 C4        -1.2079     0.6153    -0.4582 C.3        1 ****  0
    5 C5        -1.1315    -0.7946     0.3092 C.3        1 ****  0
    6 C6         0.1689    -1.5249    -0.0856 C.3        1 ****  0
    7 O1        -1.1306    -0.6178     1.7314 O.3        1 ****  0
    8 C7        -2.2556    -1.7631    -0.1176 C.3        1 ****  0
    9 C8        -2.1352     1.4152    -1.5162 C.3        1 ****  0
   10 C9        -3.8597     0.9793     0.3144 C.3        1 ****  0
   11 C10       -5.1545     1.8559     0.3137 C.3        1 ****  0
   12 C11       -4.9772     3.1492     1.0799 C.2        1 ****  0
   13 C12       -5.7514     4.1966     0.7941 C.2        1 ****  0
   14 C13       -2.6559     2.8546    -0.9500 C.3        1 ****  0
   15 O2        -1.7546     1.2909    -2.8848 O.3        1 ****  0
   16 C14       -5.5582     5.4952     1.5214 C.3        1 ****  0
   17 C15       -6.8028     4.0882    -0.2759 C.3        1 ****  0
   18 O3         0.2343     2.7424    -0.6551 O.3        1 ****  0
   19 C16        0.5740     2.6466    -2.0618 C.3        1 ****  0
   20 O4         2.4249     1.2531    -0.3582 O.2        1 ****  0
   21 O5        -1.2016     0.3530    -1.8775 O.3        1 ****  0
   22 H1         2.2898    -1.2376    -0.0875 H          1 ****  0
   23 H2         1.5043    -0.7669     1.4022 H          1 ****  0
   24 H3        -0.0533     1.6325     1.0801 H          1 ****  0
   25 H4         0.1813    -2.5027     0.3782 H          1 ****  0
   26 H5         0.1819    -1.6722    -1.1607 H          1 ****  0
   27 H6        -1.9779    -0.2234     2.0245 H          1 ****  0
   28 H7        -2.1735    -1.9163    -1.1804 H          1 ****  0
   29 H8        -3.1986    -1.2838     0.0839 H          1 ****  0
   30 H9        -2.1812    -2.6712     0.3970 H          1 ****  0
   31 H10       -3.9477    -0.0259     0.7156 H          1 ****  0
   32 H11       -5.9672     1.2926     0.7532 H          1 ****  0
   33 H12       -5.4302     2.0846    -0.7104 H          1 ****  0
   34 H13       -4.2346     3.2226     1.8467 H          1 ****  0
   35 H14       -2.6299     2.5571    -1.9976 H          1 ****  0
   36 H15       -1.7360     3.4067    -0.7613 H          1 ****  0
   37 H16       -3.4837     3.3765    -0.7101 H          1 ****  0
   38 H17       -4.5090     5.7436     1.3580 H          1 ****  0
   39 H18       -5.6512     5.2315     2.5756 H          1 ****  0
   40 H19       -6.1891     6.2116     1.2309 H          1 ****  0
   41 H20       -7.4134     3.2379     0.0301 H          1 ****  0
   42 H21       -6.2542     3.7692    -1.1629 H          1 ****  0
   43 H22       -7.3240     4.9284    -0.4081 H          1 ****  0
   44 H23       -0.2077     2.0791    -2.5424 H          1 ****  0
   45 H24        1.4898     2.0804    -2.1326 H          1 ****  0
   46 H25        0.6771     3.5866    -2.4919 H          1 ****  0
   47 H26       -0.3835    -0.1193    -2.1482 H          1 ****  0
@<TRIPOS>BOND
    1     1     2 1
    2     1     6 1
    3     1    22 1
    4     1    23 1
    5     2     3 1
    6     2    20 2
    7     3     4 1
    8     3    18 1
    9     3    24 1
   10     4     5 1
   11     4     9 1
   12     4    21 1
   13     5     6 1
   14     5     7 1
   15     5     8 1
   16     6    25 1
   17     6    26 1
   18     7    27 1
   19     8    28 1
   20     8    29 1
   21     8    30 1
   22     9    10 1
   23     9    14 1
   24     9    15 1
   25    10    11 1
   26    10    15 1
   27    10    31 1
   28    11    12 1
   29    11    32 1
   30    11    33 1
   31    12    13 2
   32    12    34 1
   33    13    16 1
   34    13    17 1
   35    14    35 1
   36    14    36 1
   37    14    37 1
   38    16    38 1
   39    16    39 1
   40    16    40 1
   41    17    41 1
   42    17    42 1
   43    17    43 1
   44    18    19 1
   45    19    44 1
   46    19    45 1
   47    19    46 1
   48    21    47 1
@<TRIPOS>SUBSTRUCTURE
1   ****   1
@<TRIPOS>MOLECULE
1b9v
50  51  1  0  0
SMALL
FORMAL_CHARGES
@<TRIPOS>ATOM
    1 C1         1.1470    -0.6190     0.0498 C.ar       1 ****  0
    2 C2         1.1433     0.7710    -0.0636 C.ar       1 ****  0
    3 C3        -0.1158     1.3990    -0.2033 C.ar       1 ****  0
    4 C4        -1.2704     0.6209    -0.1921 C.ar       1 ****  0
    5 C5        -1.2332    -0.7556    -0.0564 C.ar       1 ****  0
    6 C6        -0.0085    -1.3865     0.0536 C.ar       1 ****  0
    7 C7        -2.4760    -1.5223    -0.0223 C.2        1 ****  0.0000
    8 N1         2.5271     1.4077    -0.0016 N.am       1 ****  0
    9 N2        -0.3431     2.8303    -0.3654 N.pl3      1 ****  0
   10 C8        -1.7228     3.4024    -0.2991 C.3        1 ****  0
   11 C9        -1.6196     4.9025    -0.6616 C.3        1 ****  0
   12 C10       -3.0077     5.5718    -0.6169 C.3        1 ****  0
   13 C11       -2.3857     3.2537     1.1246 C.3        1 ****  0
   14 C12       -1.6332     4.0018     2.2431 C.3        1 ****  0
   15 C13        2.9217     2.8415     0.0404 C.3        1 ****  0
   16 C14        4.4734     2.7862     0.2368 C.3        1 ****  0
   17 C15        4.9315     1.3992    -0.2183 C.3        1 ****  0
   18 C16        3.6907     0.6126    -0.0761 C.2        1 ****  0
   19 O1         3.7055    -0.6211    -0.1438 O.2        1 ****  0
   20 C17        2.4818     3.6304     1.3155 C.3        1 ****  0
   21 O2         1.1250     3.5605     1.6083 O.3        1 ****  0
   22 C18        2.6127     3.5368    -1.3193 C.3        1 ****  0
   23 O3         2.9618     4.9267    -1.2777 O.3        1 ****  0
   24 O4        -3.5619    -0.9348    -0.0851 O.co2      1 ****  -0.50
   25 O5        -2.4407    -2.8738     0.1037 O.co2      1 ****  -0.50
   26 H1         2.0890    -1.1188     0.1383 H          1 ****  0
   27 H2        -2.2197     1.1043    -0.2919 H          1 ****  0
   28 H3         0.0476    -2.4515     0.1404 H          1 ****  0
   29 H4         0.4005     3.4488    -0.2942 H          1 ****  0
   30 H5        -2.3619     2.8901    -1.0304 H          1 ****  0
   31 H6        -1.2080     5.0039    -1.6493 H          1 ****  0
   32 H7        -0.9638     5.3948     0.0376 H          1 ****  0
   33 H8        -3.4117     5.4664     0.3708 H          1 ****  0
   34 H9        -3.6543     5.0759    -1.3139 H          1 ****  0
   35 H10       -2.9242     6.6009    -0.8674 H          1 ****  0
   36 H11       -2.4434     2.1977     1.3824 H          1 ****  0
   37 H12       -3.4121     3.6218     1.0801 H          1 ****  0
   38 H13       -1.5900     5.0424     1.9580 H          1 ****  0
   39 H14       -0.6235     3.6195     2.2594 H          1 ****  0
   40 H15       -2.0994     3.8794     3.1604 H          1 ****  0
   41 H16        4.9362     3.5299    -0.3631 H          1 ****  0
   42 H17        4.7090     2.9209     1.2603 H          1 ****  0
   43 H18        5.6597     1.0359     0.4277 H          1 ****  0
   44 H19        5.2218     1.4313    -1.2185 H          1 ****  0
   45 H20        2.7599     4.6802     1.1999 H          1 ****  0
   46 H21        3.0452     3.2587     2.1777 H          1 ****  0
   47 H22        0.8735     2.6225     1.7724 H          1 ****  0
   48 H23        1.5640     3.4413    -1.5395 H          1 ****  0
   49 H24        3.1729     3.0529    -2.1038 H          1 ****  0
   50 H25        3.9226     5.0355    -1.0898 H          1 ****  0
@<TRIPOS>BOND
    1     1     2 ar
    2     1     6 ar
    3     1    26 1
    4     2     3 ar
    5     2     8 1
    6     3     4 ar
    7     3     9 1
    8     4     5 ar
    9     4    27 1
   10     5     6 ar
   11     5     7 1
   12     6    28 1
   13     7    24 ar
   14     7    25 ar
   15     8    15 1
   16     8    18 am
   17     9    10 1
   18     9    29 1
   19    10    11 1
   20    10    13 1
   21    10    30 1
   22    11    12 1
   23    11    31 1
   24    11    32 1
   25    12    33 1
   26    12    34 1
   27    12    35 1
   28    13    14 1
   29    13    36 1
   30    13    37 1
   31    14    38 1
   32    14    39 1
   33    14    40 1
   34    15    16 1
   35    15    20 1
   36    15    22 1
   37    16    17 1
   38    16    41 1
   39    16    42 1
   40    17    18 1
   41    17    43 1
   42    17    44 1
   43    18    19 2
   44    20    21 1
   45    20    45 1
   46    20    46 1
   47    21    47 1
   48    22    23 1
   49    22    48 1
   50    22    49 1
   51    23    50 1
@<TRIPOS>SUBSTRUCTURE
1   ****   1
@<TRIPOS>MOLECULE
1baf
56  57  1  0  0
SMALL
FORMAL_CHARGES
@<TRIPOS>ATOM
    1 N1         1.2509    -0.7213     0.1103 N.3        1 ****  0
    2 C1        -0.0028    -1.4876    -0.2588 C.3        1 ****  0
    3 C2        -1.2416    -0.7263     0.2549 C.3        1 ****  0
    4 C3        -1.2462     0.7092     0.8216 C.3        1 ****  0
    5 C4         0.0154     1.4230     0.2952 C.3        1 ****  0
    6 C5         1.2849     0.7468    -0.2502 C.3        1 ****  0
    7 C6        -0.1533    -1.7292    -1.7751 C.3        1 ****  0
    8 C7         0.0557    -2.8474     0.4677 C.3        1 ****  0
    9 C8         2.5044     1.3775     0.4532 C.3        1 ****  0
   10 C9         1.3853     1.0045    -1.7678 C.3        1 ****  0
   11 N2        -2.4574     1.4297     0.2240 N.pl3      1 ****  0
   12 C10       -2.6699     1.5246     1.6843 C.ar       1 ****  0
   13 C11       -3.8148     2.1854     2.1179 C.ar       1 ****  0
   14 C12       -4.0752     2.3102     3.4773 C.ar       1 ****  0
   15 C13       -3.1906     1.7742     4.4055 C.ar       1 ****  0
   16 C14       -2.0464     1.1138     3.9746 C.ar       1 ****  0
   17 C15       -1.7861     0.9890     2.6151 C.ar       1 ****  0
   18 N3        -4.7035     2.7239     1.1843 N.pl3      1 ****  0.0000
   19 N4        -3.4516     1.8993     5.7720 N.pl3      1 ****  0.0000
   20 N5        -1.1334     0.5606     4.9332 N.pl3      1 ****  0
   21 C16        0.0024    -0.0900     4.2580 C.3        1 ****  0
   22 C17        0.9568    -0.6695     5.3197 C.3        1 ****  0
   23 N6         2.0958    -1.3223     4.6587 N.4        1 ****  1
   24 O1         2.3594    -1.3599    -0.3485 O.3        1 ****  -1
   25 O2        -4.4609     2.6076    -0.0790 O.2        1 ****  0.0000
   26 O3        -5.6720     3.2829     1.5480 O.2        1 ****  0.0000
   27 O4        -2.6289     1.4008     6.6340 O.2        1 ****  0.0000
   28 O5        -4.4195     2.4579     6.1379 O.2        1 ****  0.0000
   29 H1        -1.2318    -0.7100     1.3547 H          1 ****  0
   30 H2        -2.1531    -1.2347    -0.0923 H          1 ****  0
   31 H3        -1.2643     0.6974     1.9214 H          1 ****  0
   32 H4         0.0083     2.4820    -0.0020 H          1 ****  0
   33 H5         0.0051     1.3505     1.3928 H          1 ****  0
   34 H6         0.7329    -2.2852    -2.1150 H          1 ****  0
   35 H7        -0.1609    -0.7475    -2.2713 H          1 ****  0
   36 H8        -1.0739    -2.2872    -2.0013 H          1 ****  0
   37 H9         0.0842    -2.6998     1.5573 H          1 ****  0
   38 H10        0.9390    -3.4178     0.1443 H          1 ****  0
   39 H11       -0.8476    -3.4212     0.2128 H          1 ****  0
   40 H12        3.4325     0.8968     0.1105 H          1 ****  0
   41 H13        2.4113     1.2724     1.5442 H          1 ****  0
   42 H14        2.5445     2.4476     0.2014 H          1 ****  0
   43 H15        0.5183     0.5265    -2.2471 H          1 ****  0
   44 H16        2.3001     0.5137    -2.1314 H          1 ****  0
   45 H17        1.4074     2.0818    -1.9888 H          1 ****  0
   46 H18       -3.1351     1.8394    -0.4345 H          1 ****  0
   47 H19       -4.9810     2.8330     3.8185 H          1 ****  0
   48 H20       -0.8801     0.4660     2.2749 H          1 ****  0
   49 H21       -1.2556     0.6115     5.9546 H          1 ****  0
   50 H22       -0.3681    -0.9022     3.6152 H          1 ****  0
   51 H23        0.5401     0.6492     3.6460 H          1 ****  0
   52 H24        0.4190    -1.4071     5.9335 H          1 ****  0
   53 H25        1.3246     0.1427     5.9640 H          1 ****  0
   54 H26        2.6003    -0.6318     4.0845 H          1 ****  0
   55 H27        1.7517    -2.0828     4.0553 H          1 ****  0
   56 H28        2.7329    -1.7092     5.3696 H          1 ****  0
@<TRIPOS>BOND
    1     1     2 1
    2     1     6 1
    3     1    24 1
    4     2     3 1
    5     2     7 1
    6     2     8 1
    7     3     4 1
    8     3    29 1
    9     3    30 1
   10     4     5 1
   11     4    11 1
   12     4    31 1
   13     5     6 1
   14     5    32 1
   15     5    33 1
   16     6     9 1
   17     6    10 1
   18     7    34 1
   19     7    35 1
   20     7    36 1
   21     8    37 1
   22     8    38 1
   23     8    39 1
   24     9    40 1
   25     9    41 1
   26     9    42 1
   27    10    43 1
   28    10    44 1
   29    10    45 1
   30    11    12 1
   31    11    46 1
   32    12    13 ar
   33    12    17 ar
   34    13    14 ar
   35    13    18 1
   36    14    15 ar
   37    14    47 1
   38    15    16 ar
   39    15    19 1
   40    16    17 ar
   41    16    20 1
   42    17    48 1
   43    18    25 2
   44    18    26 2
   45    19    27 2
   46    19    28 2
   47    20    21 1
   48    20    49 1
   49    21    22 1
   50    21    50 1
   51    21    51 1
   52    22    23 1
   53    22    52 1
   54    22    53 1
   55    23    54 1
   56    23    55 1
   57    23    56 1
@<TRIPOS>SUBSTRUCTURE
1   ****   1
@<TRIPOS>MOLECULE
1bbp
75  78  1  0  0
SMALL
FORMAL_CHARGES
@<TRIPOS>ATOM
    1 C1         2.3893     0.8247     0.1615 C.2        1 ****  0
    2 C2         5.1042    -3.3664     0.0210 C.2        1 ****  0
    3 C3         0.9254    -5.7824    -0.1497 C.2        1 ****  0
    4 N1         0.6781    -0.7274    -0.6352 N.am       1 ****  0
    5 C4        -0.6812    -0.6214    -0.8551 C.2        1 ****  0
    6 C5        -1.1198     0.7024    -0.4183 C.2        1 ****  0
    7 C6        -0.0418     1.3796    -0.0184 C.2        1 ****  0
    8 C7         1.1309     0.4929    -0.1428 C.2        1 ****  0
    9 C8        -0.0277     2.7882     0.5027 C.3        1 ****  0
   10 O1        -1.3913    -1.4969    -1.3619 O.2        1 ****  0
   11 C9        -2.5507     1.1923    -0.4112 C.3        1 ****  0
   12 C10       -3.4647    -0.0203    -0.0926 C.3        1 ****  0
   13 C11       -4.9134     0.3572    -0.0351 C.2        1 ****  0.0000
   14 O2        -5.7707    -0.5282     0.0711 O.co2      1 ****  -0.50
   15 O3        -5.2857     1.6593    -0.0872 O.co2      1 ****  -0.50
   16 N2         3.4873    -1.4491     0.0667 N.ar       1 ****  0
   17 C12        3.5360    -0.1176     0.0817 C.ar       1 ****  0
   18 C13        4.8679     0.2738     0.0460 C.ar       1 ****  0
   19 C14        5.6269    -0.8919     0.0074 C.ar       1 ****  0
   20 C15        4.7218    -1.9439     0.0271 C.ar       1 ****  0
   21 C16        5.3416     1.7063     0.0610 C.3        1 ****  0
   22 C17        7.1088    -1.0652    -0.0297 C.2        1 ****  0
   23 C18        7.9719    -0.0503    -0.0202 C.2        1 ****  0
   24 N3         2.8103    -4.2372    -0.0231 N.2        1 ****  0
   25 C19        4.2147    -4.3606     0.0057 C.2        1 ****  0
   26 C20        4.5572    -5.7590    -0.0085 C.2        1 ****  0
   27 C21        3.4041    -6.4237    -0.0564 C.2        1 ****  0
   28 C22        2.3373    -5.4279    -0.0678 C.2        1 ****  0
   29 C23        5.9662    -6.2997     0.0242 C.3        1 ****  0
   30 C24        3.1449    -7.8958    -0.0842 C.2        1 ****  0
   31 C25        4.0970    -8.8252    -0.0197 C.2        1 ****  0
   32 N4         0.0825    -3.6244     0.5744 N.am       1 ****  0
   33 C26       -0.0512    -4.9245     0.1279 C.2        1 ****  0
   34 C27       -1.4722    -5.2342     0.0164 C.2        1 ****  0
   35 C28       -2.1684    -4.1443     0.4076 C.2        1 ****  0
   36 C29       -1.1879    -3.1330     0.8059 C.2        1 ****  0
   37 C30       -1.9730    -6.5682    -0.4907 C.3        1 ****  0
   38 O4        -1.4549    -2.0306     1.2947 O.2        1 ****  0
   39 C31       -3.6933    -3.8740     0.4529 C.3        1 ****  0
   40 C32       -4.6211    -5.0630     0.1273 C.3        1 ****  0
   41 C33       -6.0438    -4.6008     0.0566 C.2        1 ****  0.0000
   42 O5        -6.9522    -5.4274    -0.0820 O.co2      1 ****  -0.50
   43 O6        -6.3334    -3.2754     0.1178 O.co2      1 ****  -0.50
   44 H1         2.5826     1.8274     0.4812 H          1 ****  0
   45 H2         6.1450    -3.6142     0.0292 H          1 ****  0
   46 H3         0.6640    -6.7767    -0.4462 H          1 ****  0
   47 H4         1.2254    -1.5122    -0.8468 H          1 ****  0
   48 H5        -0.7729     2.7303     1.3159 H          1 ****  0
   49 H6        -0.5463     3.3291    -0.3087 H          1 ****  0
   50 H7         0.8316     3.1343     0.7501 H          1 ****  0
   51 H8        -2.7997     1.5839    -1.3667 H          1 ****  0
   52 H9        -2.6705     1.9367     0.3412 H          1 ****  0
   53 H10       -3.3259    -0.7813    -0.8527 H          1 ****  0
   54 H11       -3.1724    -0.4479     0.8570 H          1 ****  0
   55 H12        2.6736    -1.9868     0.1454 H          1 ****  0
   56 H13        4.8402     2.1039     0.9599 H          1 ****  0
   57 H14        4.7825     2.1412    -0.7850 H          1 ****  0
   58 H15        6.2968     1.8293     0.0320 H          1 ****  0
   59 H16        7.5000    -2.0605    -0.0660 H          1 ****  0
   60 H17        9.0261    -0.3038    -0.0502 H          1 ****  0
   61 H18        7.6577     0.9443     0.0144 H          1 ****  0
   62 H19        6.3791    -5.7983     0.9190 H          1 ****  0
   63 H20        6.4314    -5.7678    -0.8262 H          1 ****  0
   64 H21        6.0493    -7.2553     0.0100 H          1 ****  0
   65 H22        2.1293    -8.2239    -0.1608 H          1 ****  0
   66 H23        3.7650    -9.8596    -0.0503 H          1 ****  0
   67 H24        5.1059    -8.5848     0.0559 H          1 ****  0
   68 H25        0.9336    -3.1405     0.7368 H          1 ****  0
   69 H26       -1.4631    -7.2877     0.1667 H          1 ****  0
   70 H27       -1.4709    -6.6646    -1.4646 H          1 ****  0
   71 H28       -2.9430    -6.6590    -0.5208 H          1 ****  0
   72 H29       -3.9541    -3.4875     1.4547 H          1 ****  0
   73 H30       -3.9265    -3.0471    -0.2374 H          1 ****  0
   74 H31       -4.5275    -5.8092     0.8912 H          1 ****  0
   75 H32       -4.3375    -5.4895    -0.8175 H          1 ****  0
@<TRIPOS>BOND
    1     1     8 2
    2     1    17 1
    3     1    44 1
    4     2    20 1
    5     2    25 2
    6     2    45 1
    7     3    28 1
    8     3    33 2
    9     3    46 1
   10     4     5 am
   11     4     8 1
   12     4    47 1
   13     5     6 1
   14     5    10 2
   15     6     7 2
   16     6    11 1
   17     7     8 1
   18     7     9 1
   19     9    48 1
   20     9    49 1
   21     9    50 1
   22    11    12 1
   23    11    51 1
   24    11    52 1
   25    12    13 1
   26    12    53 1
   27    12    54 1
   28    13    14 ar
   29    13    15 ar
   30    16    17 ar
   31    16    20 ar
   32    16    55 1
   33    17    18 ar
   34    18    19 ar
   35    18    21 1
   36    19    20 ar
   37    19    22 1
   38    21    56 1
   39    21    57 1
   40    21    58 1
   41    22    23 2
   42    22    59 1
   43    23    60 1
   44    23    61 1
   45    24    25 1
   46    24    28 2
   47    25    26 1
   48    26    27 2
   49    26    29 1
   50    27    28 1
   51    27    30 1
   52    29    62 1
   53    29    63 1
   54    29    64 1
   55    30    31 2
   56    30    65 1
   57    31    66 1
   58    31    67 1
   59    32    33 1
   60    32    36 am
   61    32    68 1
   62    33    34 1
   63    34    35 2
   64    34    37 1
   65    35    36 1
   66    35    39 1
   67    36    38 2
   68    37    69 1
   69    37    70 1
   70    37    71 1
   71    39    40 1
   72    39    72 1
   73    39    73 1
   74    40    41 1
   75    40    74 1
   76    40    75 1
   77    41    42 ar
   78    41    43 ar
@<TRIPOS>SUBSTRUCTURE
1   ****   1
@<TRIPOS>MOLECULE
1bgo
65  67  1  0  0
SMALL
FORMAL_CHARGES
@<TRIPOS>ATOM
    1 C1         4.8845    -1.4266     0.0002 C.ar       1 ****  0
    2 C2         3.6816    -0.7310     0.0001 C.ar       1 ****  0
    3 C3         2.4772    -1.4260    -0.0000 C.ar       1 ****  0
    4 C4         1.2077    -0.6926    -0.0001 C.ar       1 ****  0
    5 C5         1.2082     0.6971     0.0001 C.ar       1 ****  0
    6 C6         0.0046     1.3918     0.0000 C.ar       1 ****  0
    7 C7        -1.1991     0.6971    -0.0001 C.ar       1 ****  0
    8 C8        -1.1995    -0.6926    -0.0003 C.ar       1 ****  0
    9 C9         0.0040    -1.3875    -0.0002 C.ar       1 ****  0
   10 C10        0.0060     2.9110    -0.0027 C.3        1 ****  0
   11 C11        1.2799     3.5732    -0.5135 C.2        1 ****  0
   12 C12       -0.5107     3.4867     1.3521 C.3        1 ****  0
   13 C13       -0.3808     3.4891     3.8759 C.3        1 ****  0
   14 C14        1.7628     3.4465     2.5865 C.3        1 ****  0
   15 N1         1.4955     4.9327    -0.2721 N.am       1 ****  0
   16 C15        2.7277     5.5286    -0.6941 C.3        1 ****  0
   17 C16        2.6109     7.0642    -0.7402 C.3        1 ****  0
   18 C17        3.9929     7.6252    -1.1255 C.3        1 ****  0
   19 C18        2.4762    -2.8150    -0.0002 C.ar       1 ****  0
   20 C19        3.6801    -3.5111    -0.0001 C.ar       1 ****  0
   21 C20        4.8834    -2.8167     0.0001 C.ar       1 ****  0
   22 O1         2.0958     2.9506    -1.2023 O.2        1 ****  0
   23 C21        0.2933     2.9743     2.5930 C.3        1 ****  0
   24 O2         2.2393     7.5546     0.5495 O.3        1 ****  0
   25 N2         3.9851     9.0583    -1.1400 N.am       1 ****  0
   26 S1         5.4709     9.8828    -1.2891 S.O2       1 ****  0
   27 O3         6.2247     9.3492    -2.4922 O.2        1 ****  0
   28 O4         6.3023     9.6457    -0.0428 O.2        1 ****  0
   29 C22        5.1978    11.6198    -1.4886 C.ar       1 ****  0
   30 N3         6.2319    12.4267    -1.7034 N.ar       1 ****  0
   31 C23        6.0707    13.7369    -1.8556 C.ar       1 ****  0
   32 C24        4.8051    14.3078    -1.7943 C.ar       1 ****  0
   33 C25        3.7037    13.4937    -1.5714 C.ar       1 ****  0
   34 C26        3.9063    12.1297    -1.4166 C.ar       1 ****  0
   35 H1         5.8375    -0.8773     0.0003 H          1 ****  0
   36 H2         3.6821     0.3690     0.0002 H          1 ****  0
   37 H3         2.1609     1.2470     0.0002 H          1 ****  0
   38 H4        -2.1516     1.2474    -0.0001 H          1 ****  0
   39 H5        -2.1522    -1.2425    -0.0004 H          1 ****  0
   40 H6         0.0040    -2.4875    -0.0004 H          1 ****  0
   41 H7        -0.7225     3.1950    -0.7764 H          1 ****  0
   42 H8        -0.4518     4.5847     1.3185 H          1 ****  0
   43 H9        -1.5689     3.2133     1.4763 H          1 ****  0
   44 H10       -1.4133     3.1133     3.9289 H          1 ****  0
   45 H11       -0.3893     4.5890     3.8749 H          1 ****  0
   46 H12        0.1812     3.1312     4.7512 H          1 ****  0
   47 H13        1.7676     4.5463     2.5714 H          1 ****  0
   48 H14        2.2348     3.0797     1.6631 H          1 ****  0
   49 H15        2.3008     3.0710     3.4694 H          1 ****  0
   50 H16        0.7779     5.4986     0.2031 H          1 ****  0
   51 H17        2.9879     5.1547    -1.6954 H          1 ****  0
   52 H18        3.5259     5.2465     0.0082 H          1 ****  0
   53 H19        1.8484     7.3736    -1.4701 H          1 ****  0
   54 H20        4.2702     7.2557    -2.1238 H          1 ****  0
   55 H21        4.7417     7.2756    -0.3994 H          1 ****  0
   56 H22        1.5232    -3.3644    -0.0003 H          1 ****  0
   57 H23        3.6797    -4.6111    -0.0002 H          1 ****  0
   58 H24        5.8358    -3.3672     0.0001 H          1 ****  0
   59 H25        0.2933     1.8751     2.5510 H          1 ****  0
   60 H26        2.9280     7.2963     1.2121 H          1 ****  0
   61 H27        3.1003     9.5798    -1.0620 H          1 ****  0
   62 H28        6.9482    14.3763    -2.0320 H          1 ****  0
   63 H29        4.6779    15.3930    -1.9210 H          1 ****  0
   64 H30        2.6913    13.9206    -1.5184 H          1 ****  0
   65 H31        3.0534    11.4583    -1.2387 H          1 ****  0
@<TRIPOS>BOND
    1     1     2 ar
    2     1    21 ar
    3     1    35 1
    4     2     3 ar
    5     2    36 1
    6     3     4 1
    7     3    19 ar
    8     4     5 ar
    9     4     9 ar
   10     5     6 ar
   11     5    37 1
   12     6     7 ar
   13     6    10 1
   14     7     8 ar
   15     7    38 1
   16     8     9 ar
   17     8    39 1
   18     9    40 1
   19    10    11 1
   20    10    12 1
   21    10    41 1
   22    11    15 am
   23    11    22 2
   24    12    23 1
   25    12    42 1
   26    12    43 1
   27    13    23 1
   28    13    44 1
   29    13    45 1
   30    13    46 1
   31    14    23 1
   32    14    47 1
   33    14    48 1
   34    14    49 1
   35    15    16 1
   36    15    50 1
   37    16    17 1
   38    16    51 1
   39    16    52 1
   40    17    18 1
   41    17    24 1
   42    17    53 1
   43    18    25 1
   44    18    54 1
   45    18    55 1
   46    19    20 ar
   47    19    56 1
   48    20    21 ar
   49    20    57 1
   50    21    58 1
   51    23    59 1
   52    24    60 1
   53    25    26 am
   54    25    61 1
   55    26    27 2
   56    26    28 2
   57    26    29 1
   58    29    30 ar
   59    29    34 ar
   60    30    31 ar
   61    31    32 ar
   62    31    62 1
   63    32    33 ar
   64    32    63 1
   65    33    34 ar
   66    33    64 1
   67    34    65 1
@<TRIPOS>SUBSTRUCTURE
1   ****   1
@<TRIPOS>MOLECULE
1bl7
44  47  1  0  0
SMALL
FORMAL_CHARGES
@<TRIPOS>ATOM
    1 C1        -0.6890    -7.3137    -0.1892 C.3        1 ****  0
    2 C2        -1.6308    -8.5321    -0.1663 C.3        1 ****  0
    3 N1        -2.6187    -8.4203    -1.2581 N.3        1 ****  0
    4 C3        -3.4502    -7.2133    -1.0782 C.3        1 ****  0
    5 C4        -2.5620    -5.9554    -1.1254 C.3        1 ****  0
    6 C5        -1.5224    -6.0399    -0.0008 C.3        1 ****  0
    7 C6         1.2039    -0.6761    -0.0001 C.ar       1 ****  0
    8 C7         1.2041     0.7132    -0.0000 C.ar       1 ****  0
    9 C8         0.0001     1.4080     0.0000 C.ar       1 ****  0
   10 C9        -1.2037     0.7139    -0.0000 C.ar       1 ****  0
   11 C10       -1.2039    -0.6760    -0.0001 C.ar       1 ****  0
   12 C11       -0.0003    -1.3704    -0.0002 C.ar       1 ****  0
   13 F1         0.0011     2.7467     0.0001 F          1 ****  0
   14 C12       -3.5426    -4.1106    -0.0002 C.ar       1 ****  0
   15 C13       -2.5157    -3.1783    -0.0002 C.ar       1 ****  0
   16 N2        -2.8073    -1.8848    -0.0002 N.ar       1 ****  0
   17 C14       -4.0707    -1.4723    -0.0001 C.ar       1 ****  0
   18 N3        -5.0769    -2.3409    -0.0002 N.ar       1 ****  0
   19 C15       -4.8504    -3.6482    -0.0002 C.ar       1 ****  0
   20 N4        -4.3522    -0.0718    -0.0001 N.pl3      1 ****  0
   21 N5        -0.6891    -4.8670    -0.0003 N.ar       1 ****  0
   22 C16        0.6424    -4.8681    -0.0003 C.ar       1 ****  0
   23 N6         1.0704    -3.6020    -0.0003 N.ar       1 ****  0
   24 C17        0.0002    -2.8353    -0.0002 C.ar       1 ****  0
   25 C18       -1.1223    -3.6202    -0.0003 C.ar       1 ****  0
   26 H1         0.0428    -7.3984     0.6276 H          1 ****  0
   27 H2        -0.1648    -7.2702    -1.1553 H          1 ****  0
   28 H3        -1.0425    -9.4521    -0.2988 H          1 ****  0
   29 H4        -2.1565    -8.5717     0.7991 H          1 ****  0
   30 H5        -3.2240    -9.2537    -1.2586 H          1 ****  0
   31 H6        -4.1993    -7.1619    -1.8821 H          1 ****  0
   32 H7        -3.9624    -7.2623    -0.1060 H          1 ****  0
   33 H8        -3.1836    -5.0589    -0.9845 H          1 ****  0
   34 H9        -2.0490    -5.9031    -2.0971 H          1 ****  0
   35 H10       -2.0293    -6.0854     0.9744 H          1 ****  0
   36 H11        2.1563    -1.2265    -0.0002 H          1 ****  0
   37 H12        2.1567     1.2633    -0.0000 H          1 ****  0
   38 H13       -2.1561     1.2643    -0.0000 H          1 ****  0
   39 H14       -2.1565    -1.2260    -0.0002 H          1 ****  0
   40 H15       -3.3254    -5.1889    -0.0003 H          1 ****  0
   41 H16       -5.6908    -4.3580    -0.0002 H          1 ****  0
   42 H17       -3.5838     0.6141    -0.0001 H          1 ****  0
   43 H18       -5.3297     0.2530    -0.0001 H          1 ****  0
   44 H19        1.2833    -5.7621    -0.0004 H          1 ****  0
@<TRIPOS>BOND
    1     1     2 1
    2     1     6 1
    3     1    26 1
    4     1    27 1
    5     2     3 1
    6     2    28 1
    7     2    29 1
    8     3     4 1
    9     3    30 1
   10     4     5 1
   11     4    31 1
   12     4    32 1
   13     5     6 1
   14     5    33 1
   15     5    34 1
   16     6    21 1
   17     6    35 1
   18     7     8 ar
   19     7    12 ar
   20     7    36 1
   21     8     9 ar
   22     8    37 1
   23     9    10 ar
   24     9    13 1
   25    10    11 ar
   26    10    38 1
   27    11    12 ar
   28    11    39 1
   29    12    24 1
   30    14    15 ar
   31    14    19 ar
   32    14    40 1
   33    15    16 ar
   34    15    25 1
   35    16    17 ar
   36    17    18 ar
   37    17    20 1
   38    18    19 ar
   39    19    41 1
   40    20    42 1
   41    20    43 1
   42    21    22 ar
   43    21    25 ar
   44    22    23 ar
   45    22    44 1
   46    23    24 ar
   47    24    25 ar
@<TRIPOS>SUBSTRUCTURE
1   ****   1
@<TRIPOS>MOLECULE
1blh
26  26  1  0  0
SMALL
FORMAL_CHARGES
@<TRIPOS>ATOM
    1 O1         8.5106     0.6417     1.1373 O.co2      1 ****  -1
    2 C1         1.2084    -0.6974    -0.0001 C.ar       1 ****  0
    3 C2         0.0043    -1.3930    -0.0003 C.ar       1 ****  0
    4 C3        -1.1987    -0.6980    -0.0003 C.ar       1 ****  0
    5 C4        -1.1983     0.6923    -0.0001 C.ar       1 ****  0
    6 C5         0.0048     1.3871     0.0001 C.ar       1 ****  0
    7 C6         1.2089     0.6915     0.0001 C.ar       1 ****  0
    8 C7         2.5047    -1.4466    -0.0002 C.3        1 ****  0
    9 O2         3.6001    -0.5254    -0.0142 O.3        1 ****  0
   10 C8         4.7939    -1.2409    -0.0000 C.2        1 ****  0
   11 O3         4.7703    -2.4764     0.0218 O.2        1 ****  0
   12 N1         6.0191    -0.5715    -0.0073 N.am       1 ****  0
   13 C9         7.2375    -1.3303     0.0288 C.3        1 ****  0
   14 P1         8.5443    -0.3097    -0.0433 P.3        1 ****  0
   15 O4         9.7076    -1.0520    -0.0024 O.co2      1 ****  0
   16 O5         8.4970     0.4839    -1.3349 O.co2      1 ****  -1
   17 H1         0.0042    -2.4930    -0.0004 H          1 ****  0
   18 H2        -2.1515    -1.2478    -0.0004 H          1 ****  0
   19 H3        -2.1508     1.2424    -0.0001 H          1 ****  0
   20 H4         0.0048     2.4871     0.0003 H          1 ****  0
   21 H5         2.1617     1.2413     0.0003 H          1 ****  0
   22 H6         2.5569    -2.0889    -0.8917 H          1 ****  0
   23 H7         2.5656    -2.0723     0.9024 H          1 ****  0
   24 H8         6.0486     0.4577    -0.0383 H          1 ****  0
   25 H9         7.2651    -2.0196    -0.8280 H          1 ****  0
   26 H10        7.2786    -1.9107     0.9623 H          1 ****  0
@<TRIPOS>BOND
    1     1    14 ar
    2     2     3 ar
    3     2     7 ar
    4     2     8 1
    5     3     4 ar
    6     3    17 1
    7     4     5 ar
    8     4    18 1
    9     5     6 ar
   10     5    19 1
   11     6     7 ar
   12     6    20 1
   13     7    21 1
   14     8     9 1
   15     8    22 1
   16     8    23 1
   17     9    10 1
   18    10    11 2
   19    10    12 am
   20    12    13 1
   21    12    24 1
   22    13    14 1
   23    13    25 1
   24    13    26 1
   25    14    15 ar
   26    14    16 ar
@<TRIPOS>SUBSTRUCTURE
1   ****   1
@<TRIPOS>MOLECULE
1bma
73  74  1  0  0
SMALL
FORMAL_CHARGES
@<TRIPOS>ATOM
    1 C1         6.1338     0.0656    -6.3357 C.2        1 ****  0
    2 C2         6.1021    -0.7025    -7.6241 C.3        1 ****  0
    3 O1         6.1863     1.3003    -6.3622 O.2        1 ****  0
    4 F1         7.2258    -1.4965    -7.7159 F          1 ****  0
    5 F2         4.9766    -1.4997    -7.6546 F          1 ****  0
    6 F3         6.0720     0.1809    -8.6846 F          1 ****  0
    7 N1         6.0927    -0.6129    -5.1071 N.am       1 ****  0
    8 C3         6.0026     0.1285    -3.8739 C.3        1 ****  0
    9 C4         6.2084    -0.7410    -2.6625 C.2        1 ****  0
   10 O2         6.4645    -1.9417    -2.8143 O.2        1 ****  0
   11 C5         4.6667     0.9220    -3.7985 C.3        1 ****  0
   12 C6         3.4297     0.0753    -4.2504 C.3        1 ****  0
   13 C7         3.2136    -1.1968    -3.4108 C.3        1 ****  0
   14 C8         2.1668     0.9473    -4.1640 C.3        1 ****  0
   15 N2         6.1910    -0.8365    -0.1619 N.4        1 ****  1
   16 N3         6.0915    -0.1430    -1.3674 N.am       1 ****  0
   17 C9         7.2603    -1.8787    -0.1812 C.3        1 ****  0
   18 C10        8.6833    -1.3367    -0.3512 C.ar       1 ****  0
   19 C11        9.7479    -2.2103    -0.1509 C.ar       1 ****  0
   20 C12       11.0506    -1.7811    -0.3717 C.ar       1 ****  0
   21 C13       11.2911    -0.4782    -0.7933 C.ar       1 ****  0
   22 C14       10.2292     0.3947    -0.9939 C.ar       1 ****  0
   23 C15        8.9252    -0.0349    -0.7730 C.ar       1 ****  0
   24 C16        6.2587     0.0609     1.0220 C.3        1 ****  0
   25 C17        4.9572    -1.6502    -0.0647 C.3        1 ****  0
   26 C18        3.7054    -0.7858    -0.1271 C.2        1 ****  0
   27 O3         3.7932     0.4227    -0.3770 O.2        1 ****  0
   28 C19        1.2105    -0.6991    -0.0001 C.ar       1 ****  0
   29 N4         2.4397    -1.4079    -0.0011 N.am       1 ****  0
   30 C20        0.0070    -1.3941    -0.0003 C.ar       1 ****  0
   31 C21       -1.1964    -0.6992    -0.0003 C.ar       1 ****  0
   32 C22       -1.1957     0.6906    -0.0001 C.ar       1 ****  0
   33 C23        0.0077     1.3858     0.0001 C.ar       1 ****  0
   34 C24        1.2112     0.6908     0.0001 C.ar       1 ****  0
   35 C25       -2.4979     1.4417    -0.0001 C.3        1 ****  0
   36 C26       -2.5581     2.3695     1.2277 C.3        1 ****  0
   37 C27       -3.6860     0.4591     0.0320 C.3        1 ****  0
   38 H1         6.1270    -1.6421    -5.0868 H          1 ****  0
   39 H2         6.8276     0.8562    -3.8712 H          1 ****  0
   40 H3         4.5094     1.2606    -2.7638 H          1 ****  0
   41 H4         4.7422     1.8136    -4.4383 H          1 ****  0
   42 H5         3.6288    -0.2512    -5.2818 H          1 ****  0
   43 H6         3.0878    -0.8872    -2.3628 H          1 ****  0
   44 H7         4.1268    -1.8054    -3.4865 H          1 ****  0
   45 H8         2.3370    -1.7631    -3.7585 H          1 ****  0
   46 H9         2.2727     1.8206    -4.8244 H          1 ****  0
   47 H10        2.0192     1.2855    -3.1277 H          1 ****  0
   48 H11        1.2946     0.3567    -4.4806 H          1 ****  0
   49 H12        5.9216     0.8720    -1.3228 H          1 ****  0
   50 H13        7.2108    -2.4506     0.7571 H          1 ****  0
   51 H14        7.0516    -2.5828    -1.0001 H          1 ****  0
   52 H15        9.5578    -3.2412     0.1824 H          1 ****  0
   53 H16       11.8917    -2.4720    -0.2129 H          1 ****  0
   54 H17       12.3227    -0.1385    -0.9681 H          1 ****  0
   55 H18       10.4198     1.4254    -1.3275 H          1 ****  0
   56 H19        8.0845     0.6564    -0.9322 H          1 ****  0
   57 H20        6.2875    -0.5368     1.9451 H          1 ****  0
   58 H21        5.3830     0.7264     1.0394 H          1 ****  0
   59 H22        7.1724     0.6703     0.9595 H          1 ****  0
   60 H23        4.9644    -2.2059     0.8846 H          1 ****  0
   61 H24        4.9368    -2.3746    -0.8923 H          1 ****  0
   62 H25        2.4095    -2.4329     0.0952 H          1 ****  0
   63 H26        0.0070    -2.4941    -0.0004 H          1 ****  0
   64 H27       -2.1492    -1.2490    -0.0004 H          1 ****  0
   65 H28        0.0077     2.4858     0.0003 H          1 ****  0
   66 H29        2.1640     1.2405     0.0003 H          1 ****  0
   67 H30       -2.5616     2.0423    -0.9194 H          1 ****  0
   68 H31       -1.7231     3.0845     1.1886 H          1 ****  0
   69 H32       -2.4822     1.7685     2.1458 H          1 ****  0
   70 H33       -3.5110     2.9190     1.2274 H          1 ****  0
   71 H34       -3.6185    -0.1580     0.9401 H          1 ****  0
   72 H35       -3.6384    -0.1924    -0.8531 H          1 ****  0
   73 H36       -4.6340     1.0171     0.0317 H          1 ****  0
@<TRIPOS>BOND
    1     1     2 1
    2     1     3 2
    3     1     7 am
    4     2     4 1
    5     2     5 1
    6     2     6 1
    7     7    38 1
    8     8     7 1
    9     8     9 1
   10     8    11 1
   11     8    39 1
   12     9    10 2
   13     9    16 am
   14    11    12 1
   15    11    40 1
   16    11    41 1
   17    12    13 1
   18    12    14 1
   19    12    42 1
   20    13    43 1
   21    13    44 1
   22    13    45 1
   23    14    46 1
   24    14    47 1
   25    14    48 1
   26    15    16 1
   27    15    17 1
   28    15    24 1
   29    15    25 1
   30    16    49 1
   31    17    18 1
   32    17    50 1
   33    17    51 1
   34    18    19 ar
   35    18    23 ar
   36    19    20 ar
   37    19    52 1
   38    20    21 ar
   39    20    53 1
   40    21    22 ar
   41    21    54 1
   42    22    23 ar
   43    22    55 1
   44    23    56 1
   45    24    57 1
   46    24    58 1
   47    24    59 1
   48    25    26 1
   49    25    60 1
   50    25    61 1
   51    26    27 2
   52    26    29 am
   53    28    29 1
   54    28    30 ar
   55    28    34 ar
   56    29    62 1
   57    30    31 ar
   58    30    63 1
   59    31    32 ar
   60    31    64 1
   61    32    33 ar
   62    32    35 1
   63    33    34 ar
   64    33    65 1
   65    34    66 1
   66    35    36 1
   67    35    37 1
   68    35    67 1
   69    36    68 1
   70    36    69 1
   71    36    70 1
   72    37    71 1
   73    37    72 1
   74    37    73 1
@<TRIPOS>SUBSTRUCTURE
1   ****   1
@<TRIPOS>MOLECULE
1bmq
71  73  1  0  0
SMALL
FORMAL_CHARGES
@<TRIPOS>ATOM
    1 C1         1.2066    -0.6950    -0.0003 C.ar       1 ****  0
    2 C2         1.2066     0.6946    -0.0001 C.ar       1 ****  0
    3 C3         0.0036     1.3903     0.0002 C.ar       1 ****  0
    4 C4        -1.2004     0.6963     0.0001 C.ar       1 ****  0
    5 C5        -1.2004    -0.6931    -0.0001 C.ar       1 ****  0
    6 C6         0.0027    -1.3887    -0.0003 C.ar       1 ****  0
    7 C7         0.0025    -2.7782    -0.0006 C.ar       1 ****  0
    8 C8        -1.2016    -3.4721    -0.0006 C.ar       1 ****  0
    9 C9        -2.4048    -2.7766    -0.0004 C.ar       1 ****  0
   10 C10       -2.4044    -1.3869    -0.0001 C.ar       1 ****  0
   11 C11        2.4709     1.4242    -0.0011 C.2        1 ****  0
   12 O1         2.4686     2.6603    -0.0330 O.2        1 ****  0
   13 N1         3.6800     0.7213     0.0813 N.am       1 ****  0
   14 C12        4.9437     1.4086     0.2054 C.3        1 ****  0
   15 C13        6.0090     0.5694    -0.4666 C.2        1 ****  0
   16 O2         5.7198    -0.5606    -0.8759 O.2        1 ****  0
   17 C14        5.3036     1.5562     1.7147 C.3        1 ****  0
   18 C15        5.3400     0.1645     2.3703 C.3        1 ****  0
   19 C16        4.2965     2.4538     2.4596 C.3        1 ****  0
   20 N2         7.3276     1.0478    -0.6366 N.am       1 ****  0
   21 C17        7.9486     0.9447    -1.9046 C.3        1 ****  0
   22 C18        7.8766    -0.6400    -2.3128 C.2        1 ****  0
   23 O3         8.0466    -1.8636    -2.2676 O.2        1 ****  0
   24 C19        9.3471     1.2788    -1.6759 C.3        1 ****  0
   25 C20        9.2617     2.3007    -0.5358 C.3        1 ****  0
   26 C21        7.7266     2.3891    -0.3252 C.3        1 ****  0
   27 N3         7.2448    -0.0541    -3.4153 N.am       1 ****  0
   28 C22        6.0765     0.0253    -5.5445 C.3        1 ****  0
   29 C23        5.6064    -0.7869    -6.7273 C.2        1 ****  0
   30 N4         4.9582    -0.1494    -7.7890 N.am       1 ****  -1
   31 O4         5.7727    -2.0109    -6.7546 O.2        1 ****  0
   32 C24        6.8742    -0.8510    -4.5519 C.3        1 ****  0
   33 S1         4.4407    -1.0493    -9.1436 S.O2       1 ****  0
   34 O5         3.8052    -0.1158   -10.1573 O.2        1 ****  0
   35 O6         5.6333    -1.7431    -9.7726 O.2        1 ****  0
   36 C25        3.2269    -2.2897    -8.6264 C.3        1 ****  0
   37 O7         8.9588    -0.2675    -5.6462 O.3        1 ****  0
   38 C26        8.1569    -1.3748    -5.2337 C.3        1 ****  0
   39 H1         2.1590    -1.2454    -0.0005 H          1 ****  0
   40 H2         0.0043     2.4903     0.0003 H          1 ****  0
   41 H3        -2.1528     1.2467     0.0003 H          1 ****  0
   42 H4         0.9549    -3.3287    -0.0008 H          1 ****  0
   43 H5        -1.2023    -4.5721    -0.0008 H          1 ****  0
   44 H6        -3.3576    -3.3262    -0.0004 H          1 ****  0
   45 H7        -3.3567    -0.8364     0.0001 H          1 ****  0
   46 H8         3.6672    -0.3082     0.0526 H          1 ****  0
   47 H9         4.8803     2.4031    -0.2604 H          1 ****  0
   48 H10        6.2919     2.0346     1.7823 H          1 ****  0
   49 H11        6.0986    -0.4573     1.8724 H          1 ****  0
   50 H12        4.3540    -0.3136     2.2744 H          1 ****  0
   51 H13        5.5940     0.2674     3.4356 H          1 ****  0
   52 H14        3.2951     2.0094     2.3612 H          1 ****  0
   53 H15        4.2944     3.4449     1.9824 H          1 ****  0
   54 H16        4.5699     2.5436     3.5213 H          1 ****  0
   55 H17        7.5448     1.6668    -2.6296 H          1 ****  0
   56 H18       10.3604     0.8551    -1.7381 H          1 ****  0
   57 H19        8.9990     1.7247    -2.6193 H          1 ****  0
   58 H20        9.6606     3.2735    -0.8590 H          1 ****  0
   59 H21        9.7507     1.9099     0.3687 H          1 ****  0
   60 H22        7.4991     2.6294     0.7238 H          1 ****  0
   61 H23        7.2844     3.1012    -1.0376 H          1 ****  0
   62 H24        7.0439     0.9561    -3.4120 H          1 ****  0
   63 H25        6.7175     0.8457    -5.8997 H          1 ****  0
   64 H26        5.2050     0.4549    -5.0289 H          1 ****  0
   65 H27        6.2522    -1.7008    -4.2340 H          1 ****  0
   66 H28        2.3623    -1.7865    -8.1688 H          1 ****  0
   67 H29        3.6865    -2.9664    -7.8909 H          1 ****  0
   68 H30        2.8947    -2.8685    -9.5008 H          1 ****  0
   69 H31        9.2045     0.2768    -4.8566 H          1 ****  0
   70 H32        7.8863    -1.9786    -6.1125 H          1 ****  0
   71 H33        8.7241    -1.9935    -4.5228 H          1 ****  0
@<TRIPOS>BOND
    1     1     2 ar
    2     1     6 ar
    3     1    39 1
    4     2     3 ar
    5     2    11 1
    6     3     4 ar
    7     3    40 1
    8     4     5 ar
    9     4    41 1
   10     5     6 ar
   11     5    10 ar
   12     6     7 ar
   13     7     8 ar
   14     7    42 1
   15     8     9 ar
   16     8    43 1
   17     9    10 ar
   18     9    44 1
   19    10    45 1
   20    11    12 2
   21    11    13 am
   22    13    46 1
   23    14    13 1
   24    14    15 1
   25    14    17 1
   26    14    47 1
   27    15    16 2
   28    15    20 am
   29    17    18 1
   30    17    19 1
   31    17    48 1
   32    18    49 1
   33    18    50 1
   34    18    51 1
   35    19    52 1
   36    19    53 1
   37    19    54 1
   38    20    21 1
   39    20    26 1
   40    21    22 1
   41    21    24 1
   42    21    55 1
   43    22    23 2
   44    22    27 am
   45    24    25 1
   46    24    56 1
   47    24    57 1
   48    25    26 1
   49    25    58 1
   50    25    59 1
   51    26    60 1
   52    26    61 1
   53    27    62 1
   54    28    29 1
   55    28    32 1
   56    28    63 1
   57    28    64 1
   58    29    30 1
   59    29    31 2
   60    30    33 1
   61    32    27 1
   62    32    38 1
   63    32    65 1
   64    33    34 2
   65    33    35 2
   66    33    36 1
   67    36    66 1
   68    36    67 1
   69    36    68 1
   70    37    38 1
   71    37    69 1
   72    38    70 1
   73    38    71 1
@<TRIPOS>SUBSTRUCTURE
1   ****   1
@<TRIPOS>MOLECULE
1byb
87  90  1  0  0
SMALL
FORMAL_CHARGES
@<TRIPOS>ATOM
    1 C1         1.0340    -0.7341     0.2852 C.3        1 ****  0
    2 C2        -0.1200    -1.4489     0.9697 C.3        1 ****  0
    3 C3        -1.5104    -0.7038    -0.5052 C.3        1 ****  0
    4 C4        -1.3715     0.8010     1.1025 C.3        1 ****  0
    5 C5        -0.0776     1.4318     0.4041 C.3        1 ****  0
    6 C6         0.0239     1.7378     1.9573 C.3        1 ****  0
    7 O1        -0.2326    -2.7712     0.4192 O.3        1 ****  0
    8 O2        -2.6407    -1.3489     0.1724 O.3        1 ****  0
    9 O3        -2.5349     1.4689     0.4457 O.3        1 ****  0
   10 O4         1.0257     0.6535    -0.1134 O.3        1 ****  0
   11 O5        -0.0360     0.6077     2.8386 O.3        1 ****  0
   12 C7         2.6784    -0.8528    -4.6063 C.3        1 ****  0
   13 C8         2.4075     0.4409    -3.8365 C.3        1 ****  0
   14 C9         3.6173    -0.2789    -2.1840 C.3        1 ****  0
   15 C10        1.5285    -0.9606    -1.7627 C.3        1 ****  0
   16 C11        1.7945    -2.2402    -2.8471 C.3        1 ****  0
   17 C12        0.2701    -1.9847    -3.1438 C.3        1 ****  0
   18 O6         3.4371     1.3931    -4.1763 O.3        1 ****  0
   19 O7         3.3688     0.9428    -1.4031 O.3        1 ****  0
   20 O8         2.1863    -1.4157    -0.3169 O.3        1 ****  0
   21 O9         2.5136    -2.1513    -4.0590 O.3        1 ****  0
   22 O10       -0.1490    -0.5986    -3.2509 O.3        1 ****  0
   23 C13        6.9114    -3.5562    -5.7778 C.3        1 ****  0
   24 C14        5.7056    -4.1245    -5.0260 C.3        1 ****  0
   25 C15        4.3734    -3.3390    -6.5468 C.3        1 ****  0
   26 C16        4.5601    -1.7336    -4.9932 C.3        1 ****  0
   27 C17        6.0257    -1.3016    -5.6971 C.3        1 ****  0
   28 C18        6.3432    -1.0003    -4.1845 C.3        1 ****  0
   29 O11        5.4551    -5.4662    -5.4908 O.3        1 ****  0
   30 O12        3.1839    -3.8676    -5.8482 O.3        1 ****  0
   31 O13        3.3877    -0.9810    -5.8801 O.3        1 ****  0
   32 O14        6.9922    -2.2070    -6.2266 O.3        1 ****  0
   33 O15        5.9073    -1.9883    -3.2133 O.3        1 ****  0
   34 C19        9.3783    -4.0115   -10.5631 C.3        1 ****  0
   35 C20        8.2171    -2.2944    -9.8286 C.3        1 ****  0
   36 C21        9.5250    -3.1951    -8.2838 C.3        1 ****  0
   37 C22        7.3972    -3.7832    -7.8420 C.3        1 ****  0
   38 C23        7.5813    -5.0332    -8.9687 C.3        1 ****  0
   39 C24        6.0574    -4.6933    -9.1751 C.3        1 ****  0
   40 O16        9.0949    -3.6041   -11.9636 O.3        1 ****  0
   41 O17        9.3278    -1.3997   -10.2036 O.3        1 ****  0
   42 O18        9.3477    -1.9862    -7.4400 O.3        1 ****  0
   43 O19        8.0125    -4.3242    -6.4015 O.3        1 ****  0
   44 O20        8.2808    -4.9170   -10.2353 O.3        1 ****  0
   45 O21        5.6901    -3.2858    -9.1729 O.3        1 ****  0
   46 H1         1.1622    -0.7944     1.3527 H          1 ****  0
   47 H2         0.0430    -1.4775     1.9703 H          1 ****  0
   48 H3        -1.5794    -0.7120    -1.5903 H          1 ****  0
   49 H4        -1.3406     0.8805     2.2013 H          1 ****  0
   50 H5        -0.0536     2.4083    -0.0986 H          1 ****  0
   51 H6        -0.7773     2.4381     2.2359 H          1 ****  0
   52 H7         0.9625     2.2826     2.1529 H          1 ****  0
   53 H8        -0.0816    -2.7843     1.3950 H          1 ****  0
   54 H9        -2.6249    -2.2868     0.4837 H          1 ****  0
   55 H10       -2.5502     1.5101     1.4267 H          1 ****  0
   56 H11        0.8240     0.1441     2.8586 H          1 ****  0
   57 H12        1.7204    -0.4377    -4.8376 H          1 ****  0
   58 H13        1.4715     0.7934    -4.0609 H          1 ****  0
   59 H14        4.6262    -0.6845    -2.0748 H          1 ****  0
   60 H15        0.4905    -0.5960    -1.7486 H          1 ****  0
   61 H16        1.8749    -3.2855    -2.5215 H          1 ****  0
   62 H17       -0.3314    -2.4704    -2.3606 H          1 ****  0
   63 H18       -0.0028    -2.5049    -4.0778 H          1 ****  0
   64 H19        2.5274     1.7281    -4.3737 H          1 ****  0
   65 H20        3.4363     1.8572    -1.7727 H          1 ****  0
   66 H21        0.1634    -0.1811    -4.0614 H          1 ****  0
   67 H22        7.0770    -3.5849    -4.7166 H          1 ****  0
   68 H23        5.8863    -4.1013    -4.0248 H          1 ****  0
   69 H24        4.3146    -3.3888    -7.6367 H          1 ****  0
   70 H25        4.5286    -1.5918    -3.9044 H          1 ****  0
   71 H26        6.1663    -0.3558    -6.2349 H          1 ****  0
   72 H27        5.9002    -0.0287    -3.9145 H          1 ****  0
   73 H28        7.4323    -0.8570    -4.0712 H          1 ****  0
   74 H29        5.6035    -5.4276    -4.5123 H          1 ****  0
   75 H30        3.1104    -4.7795    -5.4719 H          1 ****  0
   76 H31        6.4148    -2.8069    -3.2690 H          1 ****  0
   77 H32       10.3431    -4.4499   -10.4074 H          1 ****  0
   78 H33        7.2190    -1.8530    -9.9368 H          1 ****  0
   79 H34       10.5154    -3.6581    -8.2190 H          1 ****  0
   80 H35        6.3844    -3.3644    -7.8102 H          1 ****  0
   81 H36        7.6205    -6.0925    -8.6844 H          1 ****  0
   82 H37        5.4698    -5.2070    -8.3973 H          1 ****  0
   83 H38        5.7189    -5.1404   -10.1269 H          1 ****  0
   84 H39        8.5739    -4.1536   -12.6015 H          1 ****  0
   85 H40        8.4211    -1.0103   -10.2960 H          1 ****  0
   86 H41        9.4243    -1.0516    -7.7585 H          1 ****  0
   87 H42        5.9644    -2.8308    -9.9767 H          1 ****  0
@<TRIPOS>BOND
    1     1     2 1
    2     1    10 1
    3     1    20 1
    4     1    46 1
    5     2     3 1
    6     2     7 1
    7     2    47 1
    8     3     4 1
    9     3     8 1
   10     3    48 1
   11     4     5 1
   12     4     9 1
   13     4    49 1
   14     5     6 1
   15     5    10 1
   16     5    50 1
   17     6    11 1
   18     6    51 1
   19     6    52 1
   20     7    53 1
   21     8    54 1
   22     9    55 1
   23    11    56 1
   24    12    13 1
   25    12    21 1
   26    12    31 1
   27    12    57 1
   28    13    14 1
   29    13    18 1
   30    13    58 1
   31    14    15 1
   32    14    19 1
   33    14    59 1
   34    15    16 1
   35    15    20 1
   36    15    60 1
   37    16    17 1
   38    16    21 1
   39    16    61 1
   40    17    22 1
   41    17    62 1
   42    17    63 1
   43    18    64 1
   44    19    65 1
   45    22    66 1
   46    23    24 1
   47    23    32 1
   48    23    43 1
   49    23    67 1
   50    24    25 1
   51    24    29 1
   52    24    68 1
   53    25    26 1
   54    25    30 1
   55    25    69 1
   56    26    27 1
   57    26    31 1
   58    26    70 1
   59    27    28 1
   60    27    32 1
   61    27    71 1
   62    28    33 1
   63    28    72 1
   64    28    73 1
   65    29    74 1
   66    30    75 1
   67    33    76 1
   68    34    35 1
   69    34    40 1
   70    34    44 1
   71    34    77 1
   72    35    36 1
   73    35    41 1
   74    35    78 1
   75    36    37 1
   76    36    42 1
   77    36    79 1
   78    37    38 1
   79    37    43 1
   80    37    80 1
   81    38    39 1
   82    38    44 1
   83    38    81 1
   84    39    45 1
   85    39    82 1
   86    39    83 1
   87    40    84 1
   88    41    85 1
   89    42    86 1
   90    45    87 1
@<TRIPOS>SUBSTRUCTURE
1   ****   1
@<TRIPOS>MOLECULE
1byg
62  69  1  0  0
SMALL
FORMAL_CHARGES
@<TRIPOS>ATOM
    1 O1        -0.8300    -3.6088    -1.7100 O.3        1 ****  0
    2 C1         0.3298     0.4167    -0.8252 C.3        1 ****  0
    3 C2         1.2303     1.0629    -1.9112 C.3        1 ****  0
    4 C3         0.2606     0.0384    -2.4921 C.3        1 ****  0
    5 C4        -0.2833    -1.1689    -1.7021 C.3        1 ****  0
    6 C5        -0.0952    -2.5035    -1.0901 C.3        1 ****  0
    7 C6         1.3619    -2.6700     0.0163 C.3        1 ****  0
    8 N1        -0.8131    -1.4345    -0.1247 N.ar       1 ****  0
    9 C7        -1.5740    -0.3658     0.1261 C.ar       1 ****  0
   10 C8        -1.2578     0.9779     0.1883 C.ar       1 ****  0
   11 C9        -2.2553     1.9115     0.4149 C.ar       1 ****  0
   12 C10       -3.5738     1.5121     0.6000 C.ar       1 ****  0
   13 C11       -3.8999     0.1766     0.5406 C.ar       1 ****  0
   14 C12       -2.8932    -0.7515     0.2911 C.ar       1 ****  0
   15 C13       -2.9277    -2.1130     0.1004 C.ar       1 ****  0
   16 C14       -1.6309    -2.5036    -0.1690 C.ar       1 ****  0
   17 C15       -1.3658    -3.8315    -0.4824 C.ar       1 ****  0
   18 C16       -2.4322    -4.7271    -0.5256 C.ar       1 ****  0
   19 C17       -3.7364    -4.3113    -0.2502 C.ar       1 ****  0
   20 C18       -4.0043    -2.9851     0.0764 C.ar       1 ****  0
   21 C19       -5.3911    -0.0501     0.7123 C.3        1 ****  0
   22 N2        -5.8447     1.3715     0.8712 N.am       1 ****  0
   23 C20       -4.7479     2.2606     0.8051 C.2        1 ****  0
   24 O2        -4.8245     3.4910     0.8723 O.2        1 ****  0
   25 C21       -1.6551     3.1517     0.3509 C.ar       1 ****  0
   26 C22       -0.3215     2.9187     0.0930 C.ar       1 ****  0
   27 C23        0.5717     3.9606    -0.0940 C.ar       1 ****  0
   28 C24        0.0569     5.2546    -0.0294 C.ar       1 ****  0
   29 C25       -1.2986     5.4851     0.2280 C.ar       1 ****  0
   30 C26       -2.1844     4.4285     0.4323 C.ar       1 ****  0
   31 N3        -0.1008     1.6077     0.0135 N.ar       1 ****  0
   32 O3        -0.1237    -2.3178    -2.5565 O.3        1 ****  0
   33 C27        0.6301    -3.2727    -3.3173 C.3        1 ****  0
   34 N4         0.3030     0.1004    -3.9648 N.4        1 ****  1
   35 C28        1.6745    -0.1448    -4.4461 C.3        1 ****  0
   36 H1        -0.4664    -0.1991    -1.2687 H          1 ****  0
   37 H2         0.9686     2.0662    -2.2783 H          1 ****  0
   38 H3         2.2568     0.8115    -2.2164 H          1 ****  0
   39 H4        -0.7762     0.2238    -2.1747 H          1 ****  0
   40 H5        -1.3275    -1.0152    -1.3920 H          1 ****  0
   41 H6         1.3112    -2.7706     1.1105 H          1 ****  0
   42 H7         2.4081    -2.6959    -0.3227 H          1 ****  0
   43 H8         0.8443    -3.5345    -0.4249 H          1 ****  0
   44 H9        -0.3392    -4.1671    -0.6913 H          1 ****  0
   45 H10       -2.2434    -5.7802    -0.7811 H          1 ****  0
   46 H11       -4.5603    -5.0391    -0.2918 H          1 ****  0
   47 H12       -5.0249    -2.6445     0.3053 H          1 ****  0
   48 H13       -5.8221    -0.4949    -0.1968 H          1 ****  0
   49 H14       -5.5932    -0.6256     1.6277 H          1 ****  0
   50 H15       -6.8236     1.6605     1.0098 H          1 ****  0
   51 H16        1.6390     3.7755    -0.2849 H          1 ****  0
   52 H17        0.7297     6.1110    -0.1839 H          1 ****  0
   53 H18       -1.6722     6.5189     0.2701 H          1 ****  0
   54 H19       -3.2495     4.6003     0.6471 H          1 ****  0
   55 H20        1.3700    -3.7583    -2.6640 H          1 ****  0
   56 H21        1.1506    -2.7572    -4.1379 H          1 ****  0
   57 H22       -0.0480    -4.0328    -3.7326 H          1 ****  0
   58 H23       -0.3282    -0.6138    -4.3551 H          1 ****  0
   59 H24       -0.0065     1.0318    -4.2775 H          1 ****  0
   60 H25        2.0026    -1.1400    -4.1114 H          1 ****  0
   61 H26        2.3466     0.6187    -4.0274 H          1 ****  0
   62 H27        1.6989    -0.0971    -5.5447 H          1 ****  0
@<TRIPOS>BOND
    1     1     6 1
    2     2     1 1
    3     2     3 1
    4     2    31 1
    5     2    36 1
    6     3     4 1
    7     3    37 1
    8     3    38 1
    9     4     5 1
   10     4    34 1
   11     4    39 1
   12     5     6 1
   13     5    32 1
   14     5    40 1
   15     6     7 1
   16     6     8 1
   17     7    41 1
   18     7    42 1
   19     7    43 1
   20     8     9 ar
   21     8    16 ar
   22     9    10 ar
   23     9    14 ar
   24    10    11 ar
   25    10    31 ar
   26    11    12 ar
   27    11    25 ar
   28    12    13 ar
   29    12    23 1
   30    13    14 ar
   31    13    21 1
   32    14    15 ar
   33    15    16 ar
   34    15    20 ar
   35    16    17 ar
   36    17    18 ar
   37    17    44 1
   38    18    19 ar
   39    18    45 1
   40    19    20 ar
   41    19    46 1
   42    20    47 1
   43    21    22 1
   44    21    48 1
   45    21    49 1
   46    22    23 am
   47    22    50 1
   48    23    24 2
   49    25    26 ar
   50    25    30 ar
   51    26    27 ar
   52    26    31 ar
   53    27    28 ar
   54    27    51 1
   55    28    29 ar
   56    28    52 1
   57    29    30 ar
   58    29    53 1
   59    30    54 1
   60    32    33 1
   61    33    55 1
   62    33    56 1
   63    33    57 1
   64    34    35 1
   65    34    58 1
   66    34    59 1
   67    35    60 1
   68    35    61 1
   69    35    62 1
@<TRIPOS>SUBSTRUCTURE
1   ****   1
@<TRIPOS>MOLECULE
1c12
50  51  1  0  0
SMALL
FORMAL_CHARGES
@<TRIPOS>ATOM
    1 C1         1.1937    -0.6733     0.0043 C.ar       1 ****  0
    2 C2         1.2038     0.7184     0.0040 C.ar       1 ****  0
    3 C3        -0.0138     1.3830    -0.0035 C.ar       1 ****  0
    4 C4        -1.2015     0.6951    -0.0127 C.ar       1 ****  0
    5 C5        -1.2267    -0.6919    -0.0107 C.ar       1 ****  0
    6 C6        -0.0129    -1.3734    -0.0020 C.ar       1 ****  0
    7 C7        -0.1848     2.8462    -0.0012 C.3        1 ****  0
    8 C8        -1.7648     3.0228    -0.0023 C.3        1 ****  0
    9 C9        -2.3964     1.5708    -0.0161 C.3        1 ****  0
   10 C10       -3.1797     1.3412     1.2950 C.3        1 ****  0
   11 C11       -2.2601     1.5896     2.5075 C.3        1 ****  0
   12 C12       -4.3822     2.3024     1.3559 C.3        1 ****  0
   13 C13       -2.2207     3.7866    -1.2591 C.3        1 ****  0
   14 C14        0.4693     3.4605    -1.2508 C.3        1 ****  0
   15 C15        0.4378     3.4610     1.2638 C.3        1 ****  0
   16 C16        2.4906    -1.4234     0.0109 C.3        1 ****  0
   17 C17       -1.3016    -3.5956    -0.0063 C.3        1 ****  0
   18 C18       -1.0144    -5.1086    -0.0019 C.3        1 ****  0
   19 C19       -2.3122    -5.8654    -0.0087 C.2        1 ****  0.0000
   20 O1        -2.3073    -7.1018    -0.0065 O.co2      1 ****  -0.50
   21 O2        -3.4915    -5.1913    -0.0174 O.co2      1 ****  -0.50
   22 C20       -0.0052    -2.8366     0.0005 C.2        1 ****  0
   23 O3         1.0694    -3.4477     0.0082 O.2        1 ****  0
   24 H1         2.1518     1.2764     0.0096 H          1 ****  0
   25 H2        -2.1810    -1.2390    -0.0159 H          1 ****  0
   26 H3        -2.0854     3.5934     0.8818 H          1 ****  0
   27 H4        -3.0811     1.3971    -0.8594 H          1 ****  0
   28 H5        -3.5392     0.3019     1.3206 H          1 ****  0
   29 H6        -1.8908     2.6254     2.4778 H          1 ****  0
   30 H7        -1.4063     0.8973     2.4646 H          1 ****  0
   31 H8        -2.8215     1.4251     3.4390 H          1 ****  0
   32 H9        -5.0435     2.1162     0.4968 H          1 ****  0
   33 H10       -4.0225     3.3414     1.3214 H          1 ****  0
   34 H11       -4.9392     2.1378     2.2900 H          1 ****  0
   35 H12       -1.9134     3.2237    -2.1528 H          1 ****  0
   36 H13       -1.7405     4.7761    -1.2721 H          1 ****  0
   37 H14       -3.3143     3.9040    -1.2514 H          1 ****  0
   38 H15       -0.0018     3.0379    -2.1504 H          1 ****  0
   39 H16        1.5420     3.2169    -1.2542 H          1 ****  0
   40 H17        0.3378     4.5526    -1.2423 H          1 ****  0
   41 H18        1.5100     3.2170     1.2913 H          1 ****  0
   42 H19       -0.0535     3.0329     2.1501 H          1 ****  0
   43 H20        0.3047     4.5529     1.2555 H          1 ****  0
   44 H21        3.0287    -1.0608     0.8991 H          1 ****  0
   45 H22        3.0375    -1.0612    -0.8722 H          1 ****  0
   46 H23        2.3705    -2.5168     0.0105 H          1 ****  0
   47 H24       -1.8740    -3.3339    -0.9085 H          1 ****  0
   48 H25       -1.8856    -3.3298     0.8871 H          1 ****  0
   49 H26       -0.4312    -5.3738    -0.8961 H          1 ****  0
   50 H27       -0.4422    -5.3716     0.9001 H          1 ****  0
@<TRIPOS>BOND
    1     1     2 ar
    2     1     6 ar
    3     1    16 1
    4     2     3 ar
    5     2    24 1
    6     3     4 ar
    7     3     7 1
    8     4     5 ar
    9     4     9 1
   10     5     6 ar
   11     5    25 1
   12     6    22 1
   13     7     8 1
   14     7    14 1
   15     7    15 1
   16     8     9 1
   17     8    13 1
   18     8    26 1
   19     9    10 1
   20     9    27 1
   21    10    11 1
   22    10    12 1
   23    10    28 1
   24    11    29 1
   25    11    30 1
   26    11    31 1
   27    12    32 1
   28    12    33 1
   29    12    34 1
   30    13    35 1
   31    13    36 1
   32    13    37 1
   33    14    38 1
   34    14    39 1
   35    14    40 1
   36    15    41 1
   37    15    42 1
   38    15    43 1
   39    16    44 1
   40    16    45 1
   41    16    46 1
   42    17    18 1
   43    17    22 1
   44    17    47 1
   45    17    48 1
   46    18    19 1
   47    18    49 1
   48    18    50 1
   49    19    20 ar
   50    19    21 ar
   51    22    23 2
@<TRIPOS>SUBSTRUCTURE
1   ****   1
@<TRIPOS>MOLECULE
1c1e
24  26  1  0  0
SMALL
FORMAL_CHARGES
@<TRIPOS>ATOM
    1 Cl1        1.4668    -2.3819    -1.1912 Cl         1 ****  0
    2 Cl2        2.6087     0.7362    -1.3536 Cl         1 ****  0
    3 Cl3        0.1339    -2.3299     1.0657 Cl         1 ****  0
    4 Cl4        1.6411     1.7478     0.8738 Cl         1 ****  0
    5 Cl5       -0.1326     0.2095     3.3997 Cl         1 ****  0
    6 Cl6       -2.3655     0.9101     1.0059 Cl         1 ****  0
    7 C1         0.7630    -1.0139    -0.4337 C.2        1 ****  0
    8 C2         1.2150     0.2191    -0.4987 C.2        1 ****  0
    9 C3         0.2243    -0.6193     0.6811 C.3        1 ****  0
   10 C4         0.9629    -0.0336     1.1199 C.3        1 ****  0
   11 C5         0.7825    -0.5541     1.1707 C.3        1 ****  0
   12 C6         0.5870     0.3634     0.6390 C.3        1 ****  0
   13 C7        -0.5798     0.2889     1.7041 C.3        1 ****  0
   14 N1         2.2853    -0.7881     2.3424 N.am       1 ****  0
   15 C8         1.1552    -1.5653     2.2407 C.2        1 ****  0
   16 O1         1.1440    -2.7947     2.3565 O.2        1 ****  0
   17 C9         1.9971     0.5311     2.0705 C.2        1 ****  0
   18 O2         2.8472     1.4218     1.9763 O.2        1 ****  0
   19 C10        3.5947    -1.2940     2.6146 C.3        1 ****  0
   20 H1         1.3941    -0.7979     0.4565 H          1 ****  0
   21 H2         1.6127    -0.3617     0.4752 H          1 ****  0
   22 H3         3.9333    -0.6671     3.4527 H          1 ****  0
   23 H4         4.1736    -0.9680     1.7379 H          1 ****  0
   24 H5         3.6678    -2.3732     2.8142 H          1 ****  0
@<TRIPOS>BOND
    1     1     7 1
    2     2     8 1
    3     5    13 1
    4     6    13 1
    5     7     8 2
    6     7    12 1
    7     8     9 1
    8     9     3 1
    9     9    10 1
   10     9    13 1
   11    10    11 1
   12    10    17 1
   13    10    20 1
   14    11    12 1
   15    11    15 1
   16    11    21 1
   17    12     4 1
   18    12    13 1
   19    14    15 am
   20    14    17 am
   21    14    19 1
   22    15    16 2
   23    17    18 2
   24    19    22 1
   25    19    23 1
   26    19    24 1
@<TRIPOS>SUBSTRUCTURE
1   ****   1
@<TRIPOS>MOLECULE
1c5c
32  33  1  0  0
SMALL
FORMAL_CHARGES
@<TRIPOS>ATOM
    1 C1         1.2079    -0.6816    -0.0002 C.ar       1 ****  0
    2 C2         1.2000     0.7078    -0.0000 C.ar       1 ****  0
    3 C3        -0.0074     1.3958     0.0001 C.ar       1 ****  0
    4 C4        -1.2069     0.6938     0.0001 C.ar       1 ****  0
    5 C5        -2.3962    -1.3990    -0.0002 C.ar       1 ****  0
    6 C6        -2.3866    -2.7887    -0.0004 C.ar       1 ****  0
    7 C7        -1.1787    -3.4757    -0.0006 C.ar       1 ****  0
    8 C8         0.0198    -2.7726    -0.0005 C.ar       1 ****  0
    9 C9         0.0091    -1.3832    -0.0003 C.ar       1 ****  0
   10 C10       -1.1977    -0.6959    -0.0001 C.ar       1 ****  0
   11 S1         2.7392    -1.5572    -0.0006 S.O2       1 ****  0
   12 O1         3.8903    -0.5737    -0.0950 O.co2      1 ****  0
   13 O2         2.7790    -2.5959    -1.3031 O.co2      1 ****  -1
   14 O3         2.8570    -2.3585     1.2819 O.co2      1 ****  0
   15 N1         2.4460     1.4380     0.0001 N.am       1 ****  0
   16 C11        2.6813     2.8694     0.0003 C.2        1 ****  0
   17 O4         3.8546     3.2586     0.0003 O.2        1 ****  0
   18 C12        1.5935     3.9212     0.0004 C.3        1 ****  0
   19 S2        -3.9295    -0.5270     0.0001 S.O2       1 ****  0
   20 O5        -5.0784    -1.5130     0.0944 O.2        1 ****  0
   21 O6        -3.9720     0.5316     1.3288 O.3        1 ****  0
   22 O7        -4.0493     0.2745    -1.2821 O.2        1 ****  0
   23 H1        -0.0138     2.4958     0.0003 H          1 ****  0
   24 H2        -2.1630     1.2378     0.0002 H          1 ****  0
   25 H3        -3.3355    -3.3450    -0.0005 H          1 ****  0
   26 H4        -1.1713    -4.5757    -0.0008 H          1 ****  0
   27 H5         0.9765    -3.3156    -0.0007 H          1 ****  0
   28 H6         3.2951     0.8549    -0.0001 H          1 ****  0
   29 H7         0.9890     3.6480     0.8779 H          1 ****  0
   30 H8         0.9890     3.6482    -0.8772 H          1 ****  0
   31 H9         1.9297     4.9686     0.0006 H          1 ****  0
   32 H10       -3.2257     1.1787     1.2626 H          1 ****  0
@<TRIPOS>BOND
    1     1     2 ar
    2     1     9 ar
    3     1    11 1
    4     2     3 ar
    5     2    15 1
    6     3     4 ar
    7     3    23 1
    8     4    10 ar
    9     4    24 1
   10     5     6 ar
   11     5    10 ar
   12     5    19 1
   13     6     7 ar
   14     6    25 1
   15     7     8 ar
   16     7    26 1
   17     8     9 ar
   18     8    27 1
   19     9    10 ar
   20    11    12 ar
   21    11    13 ar
   22    11    14 ar
   23    15    16 am
   24    15    28 1
   25    16    17 2
   26    16    18 1
   27    18    29 1
   28    18    30 1
   29    18    31 1
   30    19    20 2
   31    19    21 1
   32    19    22 2
   33    21    32 1
@<TRIPOS>SUBSTRUCTURE
1   ****   1
@<TRIPOS>MOLECULE
1c5x
21  22  1  0  0
SMALL
FORMAL_CHARGES
@<TRIPOS>ATOM
    1 C1         4.8842     0.5050    -0.0000 C.2        1 ****  0
    2 C2         3.4475     0.2327    -0.0001 C.ar       1 ****  0
    3 N1         5.3461     1.8231     0.0001 N.3        1 ****  0
    4 N2         5.7130    -0.4584    -0.0002 N.2        1 ****  1
    5 S1         2.7915    -1.3177    -0.0003 S.3        1 ****  0
    6 C3         1.2223    -0.7249    -0.0002 C.ar       1 ****  0
    7 C4         1.2038     0.6561    -0.0001 C.ar       1 ****  0
    8 C5         2.4723     1.2297     0.0000 C.ar       1 ****  0
    9 C6         0.0518    -1.4679    -0.0003 C.ar       1 ****  0
   10 C7        -1.1583    -0.7771    -0.0002 C.ar       1 ****  0
   11 C8        -1.1832     0.6186    -0.0001 C.ar       1 ****  0
   12 C9         0.0030     1.3476     0.0000 C.ar       1 ****  0
   13 I1        -0.0182     3.4026     0.0001 I          1 ****  0
   14 H1         4.6742     2.6037     0.0002 H          1 ****  0
   15 H2         6.3582     2.0145     0.0001 H          1 ****  0
   16 H3         6.7251    -0.2674    -0.0001 H          1 ****  0
   17 H4         5.3724    -1.4304    -0.0003 H          1 ****  0
   18 H5         2.6756     2.3108     0.0002 H          1 ****  0
   19 H6         0.0775    -2.5676    -0.0004 H          1 ****  0
   20 H7        -2.1046    -1.3379    -0.0003 H          1 ****  0
   21 H8        -2.1480     1.1469    -0.0000 H          1 ****  0
@<TRIPOS>BOND
    1     1     2 1
    2     1     3 1
    3     1     4 2
    4     2     5 ar
    5     2     8 ar
    6     3    14 1
    7     3    15 1
    8     4    16 1
    9     4    17 1
   10     5     6 ar
   11     6     7 ar
   12     6     9 ar
   13     7     8 ar
   14     7    12 ar
   15     8    18 1
   16     9    10 ar
   17     9    19 1
   18    10    11 ar
   19    10    20 1
   20    11    12 ar
   21    11    21 1
   22    12    13 1
@<TRIPOS>SUBSTRUCTURE
1   ****   1
@<TRIPOS>MOLECULE
1c83
24  25  1  0  0
SMALL
FORMAL_CHARGES
@<TRIPOS>ATOM
    1 C1         1.1914    -0.6760    -0.0001 C.ar       1 ****  0
    2 C2         1.2331     0.7085     0.0001 C.ar       1 ****  0
    3 C3         0.0126     1.3831     0.0000 C.ar       1 ****  0
    4 C4        -1.1980     0.6823    -0.0001 C.ar       1 ****  0
    5 C5        -1.2196    -0.7116    -0.0003 C.ar       1 ****  0
    6 C6         0.0049    -1.3577    -0.0003 C.ar       1 ****  0
    7 C7         0.2869    -2.7105    -0.0005 C.ar       1 ****  0
    8 C8         1.6834    -2.7730    -0.0004 C.ar       1 ****  0
    9 N1         2.1997    -1.5377    -0.0001 N.ar       1 ****  0
   10 N2        -0.0003     2.8057     0.0002 N.am       1 ****  0
   11 C9         1.1643     3.6224     0.0004 C.2        1 ****  0
   12 C10        1.0171     5.0780     0.0005 C.2        1 ****  0.0000
   13 O1         2.0217     5.7985     0.0007 O.co2      1 ****  -0.50
   14 O2        -0.2202     5.6383     0.0003 O.co2      1 ****  -0.50
   15 O3         2.3014     3.1384     0.0006 O.2        1 ****  0
   16 C11       -2.4612     1.4233    -0.0002 C.2        1 ****  0.0000
   17 O4        -3.5363     0.8126    -0.0004 O.co2      1 ****  -0.50
   18 O5        -2.4525     2.7819     0.0001 O.co2      1 ****  -0.50
   19 H1         2.1889     1.2531     0.0002 H          1 ****  0
   20 H2        -2.1660    -1.2723    -0.0005 H          1 ****  0
   21 H3        -0.4259    -3.5483    -0.0007 H          1 ****  0
   22 H4         2.2725    -3.7020    -0.0005 H          1 ****  0
   23 H5         3.2017    -1.2990     0.0000 H          1 ****  0
   24 H6        -0.9162     3.2769     0.0001 H          1 ****  0
@<TRIPOS>BOND
    1     1     2 ar
    2     1     6 ar
    3     1     9 ar
    4     2     3 ar
    5     2    19 1
    6     3     4 ar
    7     3    10 1
    8     4     5 ar
    9     4    16 1
   10     5     6 ar
   11     5    20 1
   12     6     7 ar
   13     7     8 ar
   14     7    21 1
   15     8     9 ar
   16     8    22 1
   17     9    23 1
   18    10    11 am
   19    10    24 1
   20    11    12 1
   21    11    15 2
   22    12    13 ar
   23    12    14 ar
   24    16    17 ar
   25    16    18 ar
@<TRIPOS>SUBSTRUCTURE
1   ****   1
@<TRIPOS>MOLECULE
1cbs
49  49  1  0  0
SMALL
FORMAL_CHARGES
@<TRIPOS>ATOM
    1 C1         1.2641    -0.7495     0.1537 C.3        1 ****  0
    2 C2        -0.0211    -1.3756    -0.3942 C.3        1 ****  0
    3 C3        -1.1870    -0.7374     0.3365 C.3        1 ****  0
    4 C4        -1.2897     0.7238    -0.1155 C.3        1 ****  0
    5 C5         0.0523     1.4258    -0.0565 C.2        1 ****  0
    6 C6         1.2086     0.7593     0.0632 C.2        1 ****  0
    7 C7         2.4621     1.5133     0.1094 C.2        1 ****  0
    8 C8         2.4514     2.8426     0.0328 C.2        1 ****  0
    9 C9         3.7140     3.5825     0.0805 C.2        1 ****  0
   10 C10        3.7159     4.9120     0.0048 C.2        1 ****  0
   11 C11        4.9846     5.6435     0.0534 C.2        1 ****  0
   12 C12        4.9986     6.9723    -0.0215 C.2        1 ****  0
   13 C13        6.2726     7.6948     0.0280 C.2        1 ****  0
   14 C14        6.2595     9.0326    -0.0493 C.2        1 ****  0
   15 C15        7.4626     9.9154    -0.0141 C.2        1 ****  0.0000
   16 C16        2.4664    -1.2705    -0.6569 C.3        1 ****  0
   17 C17        1.4327    -1.1492     1.6325 C.3        1 ****  0
   18 C18        0.0819     2.9209    -0.1518 C.3        1 ****  0
   19 C19        5.0113     2.8373     0.2153 C.3        1 ****  0
   20 C20        7.5466     6.9031     0.1640 C.3        1 ****  0
   21 O1         7.3071    11.1384    -0.0950 O.co2      1 ****  -0.50
   22 O2         8.7252     9.4219     0.1041 O.co2      1 ****  -0.50
   23 H1        -0.0158    -2.4598    -0.2083 H          1 ****  0
   24 H2        -0.1030    -1.1726    -1.4722 H          1 ****  0
   25 H3        -2.1170    -1.2682     0.0847 H          1 ****  0
   26 H4        -1.0113    -0.7767     1.4217 H          1 ****  0
   27 H5        -1.6683     0.7567    -1.1478 H          1 ****  0
   28 H6        -2.0022     1.2543     0.5335 H          1 ****  0
   29 H7         3.4184     0.9789     0.2079 H          1 ****  0
   30 H8         1.4982     3.3825    -0.0658 H          1 ****  0
   31 H9         2.7672     5.4599    -0.0940 H          1 ****  0
   32 H10        5.9309     5.0913     0.1523 H          1 ****  0
   33 H11        4.0544     7.5279    -0.1204 H          1 ****  0
   34 H12        5.2790     9.5215    -0.1471 H          1 ****  0
   35 H13        2.5172    -2.3665    -0.5777 H          1 ****  0
   36 H14        3.3947    -0.8313    -0.2628 H          1 ****  0
   37 H15        2.3476    -0.9860    -1.7128 H          1 ****  0
   38 H16        2.3597    -0.7098     2.0296 H          1 ****  0
   39 H17        1.4821    -2.2451     1.7147 H          1 ****  0
   40 H18        0.5751    -0.7780     2.2126 H          1 ****  0
   41 H19       -0.5623     3.2794     0.6647 H          1 ****  0
   42 H20       -0.4247     3.1643    -1.0974 H          1 ****  0
   43 H21        1.0948     3.3468    -0.1005 H          1 ****  0
   44 H22        5.0253     2.1357    -0.6318 H          1 ****  0
   45 H23        4.8999     2.2361     1.1297 H          1 ****  0
   46 H24        5.9004     3.4846     0.2416 H          1 ****  0
   47 H25        7.5501     6.2043    -0.6855 H          1 ****  0
   48 H26        7.4244     6.3051     1.0792 H          1 ****  0
   49 H27        8.4515     7.5278     0.1928 H          1 ****  0
@<TRIPOS>BOND
    1     1     2 1
    2     1     6 1
    3     1    16 1
    4     1    17 1
    5     2     3 1
    6     2    23 1
    7     2    24 1
    8     3     4 1
    9     3    25 1
   10     3    26 1
   11     4     5 1
   12     4    27 1
   13     4    28 1
   14     5     6 2
   15     5    18 1
   16     6     7 1
   17     7     8 2
   18     7    29 1
   19     8     9 1
   20     8    30 1
   21     9    10 2
   22     9    19 1
   23    10    11 1
   24    10    31 1
   25    11    12 2
   26    11    32 1
   27    12    13 1
   28    12    33 1
   29    13    14 2
   30    13    20 1
   31    14    15 1
   32    14    34 1
   33    15    21 ar
   34    15    22 ar
   35    16    35 1
   36    16    36 1
   37    16    37 1
   38    17    38 1
   39    17    39 1
   40    17    40 1
   41    18    41 1
   42    18    42 1
   43    18    43 1
   44    19    44 1
   45    19    45 1
   46    19    46 1
   47    20    47 1
   48    20    48 1
   49    20    49 1
@<TRIPOS>SUBSTRUCTURE
1   ****   1
@<TRIPOS>MOLECULE
1cbx
25  25  1  0  0
SMALL
FORMAL_CHARGES
@<TRIPOS>ATOM
    1 C1         6.1440    -0.5926     0.8675 C.2        1 ****  0.0000
    2 C2         4.9609    -1.4090     0.4295 C.3        1 ****  0
    3 C3         3.6748    -0.5654     0.5064 C.3        1 ****  0
    4 C4         3.4359    -0.1911     1.9453 C.2        1 ****  0.0000
    5 C5         2.5121    -1.4504     0.0036 C.3        1 ****  0
    6 C6         1.2084    -0.6974    -0.0001 C.ar       1 ****  0
    7 C7         0.0043    -1.3930    -0.0003 C.ar       1 ****  0
    8 C8         1.2089     0.6915     0.0001 C.ar       1 ****  0
    9 C9        -1.1987    -0.6980    -0.0003 C.ar       1 ****  0
   10 C10        0.0048     1.3871     0.0001 C.ar       1 ****  0
   11 C11       -1.1983     0.6923    -0.0001 C.ar       1 ****  0
   12 O1         7.2585    -1.1208     0.9499 O.co2      1 ****  -0.50
   13 O2         5.9987     0.7287     1.1483 O.co2      1 ****  -0.50
   14 O3         3.2710    -1.0738     2.7940 O.co2      1 ****  -0.50
   15 O4         3.4132     1.1167     2.3113 O.co2      1 ****  -0.50
   16 H1         4.8599    -2.2873     1.0840 H          1 ****  0
   17 H2         5.1138    -1.7465    -0.6062 H          1 ****  0
   18 H3         3.7545     0.3480    -0.1013 H          1 ****  0
   19 H4         2.4179    -2.3310     0.6560 H          1 ****  0
   20 H5         2.7336    -1.7931    -1.0178 H          1 ****  0
   21 H6         0.0042    -2.4930    -0.0005 H          1 ****  0
   22 H7         2.1617     1.2413     0.0003 H          1 ****  0
   23 H8        -2.1515    -1.2478    -0.0004 H          1 ****  0
   24 H9         0.0048     2.4871     0.0003 H          1 ****  0
   25 H10       -2.1508     1.2424    -0.0001 H          1 ****  0
@<TRIPOS>BOND
    1     1     2 1
    2     1    12 ar
    3     1    13 ar
    4     2     3 1
    5     2    16 1
    6     2    17 1
    7     3     4 1
    8     3     5 1
    9     3    18 1
   10     4    14 ar
   11     4    15 ar
   12     5     6 1
   13     5    19 1
   14     5    20 1
   15     6     7 ar
   16     6     8 ar
   17     7     9 ar
   18     7    21 1
   19     8    10 ar
   20     8    22 1
   21     9    11 ar
   22     9    23 1
   23    10    11 ar
   24    10    24 1
   25    11    25 1
@<TRIPOS>SUBSTRUCTURE
1   ****   1
@<TRIPOS>MOLECULE
1cdg
45  46  1  0  0
SMALL
FORMAL_CHARGES
@<TRIPOS>ATOM
    1 C1         0.2261    -0.1833     0.4241 C.3        1 ****  0
    2 C2        -0.2809    -1.3348     0.7199 C.3        1 ****  0
    3 C3        -1.2357    -1.0031    -1.2324 C.3        1 ****  0
    4 C4        -1.1803     0.9900    -0.2696 C.3        1 ****  0
    5 C5         0.2673     1.2547    -0.9215 C.3        1 ****  0
    6 C6         0.1854     2.1478     0.2208 C.3        1 ****  0
    7 O1         1.1401    -0.7713     1.8407 O.3        1 ****  0
    8 O2        -0.2768    -2.7786     0.3120 O.3        1 ****  0
    9 O3        -2.5150    -1.3186    -0.6151 O.3        1 ****  0
   10 O4        -2.1881     1.4133    -1.2830 O.3        1 ****  0
   11 O5         1.3349     0.3175    -0.6780 O.3        1 ****  0
   12 O6         1.5133     2.3644     0.7129 O.3        1 ****  0
   13 C7        -2.1076     0.9830     4.3675 C.3        1 ****  0
   14 C8        -0.7382     1.6585     4.3768 C.3        1 ****  0
   15 C9         0.0301     1.2322     3.1682 C.3        1 ****  0
   16 C10        0.2048    -0.2654     3.0471 C.3        1 ****  0
   17 C11       -1.2394    -0.9468     3.2268 C.3        1 ****  0
   18 C12       -1.1380    -2.4589     3.4348 C.3        1 ****  0
   19 O7        -2.8795     1.4186     3.1964 O.3        1 ****  0
   20 O8        -0.8866     3.0662     4.3988 O.3        1 ****  0
   21 O9         1.3084     1.8753     3.1934 O.3        1 ****  0
   22 O10       -1.9250    -0.4312     4.3794 O.3        1 ****  0
   23 O11       -0.3522    -2.7267     4.5882 O.3        1 ****  0
   24 H1        -0.6221     0.4819     0.6393 H          1 ****  0
   25 H2        -0.4193    -1.1136     1.7908 H          1 ****  0
   26 H3        -1.1330    -1.3910    -2.2168 H          1 ****  0
   27 H4        -1.2886     1.4712     0.7109 H          1 ****  0
   28 H5         0.5394     1.8999    -1.7694 H          1 ****  0
   29 H6        -0.4084     1.7011     0.9824 H          1 ****  0
   30 H7        -0.2398     3.0782    -0.0820 H          1 ****  0
   31 H8        -0.2534    -2.6249     1.2293 H          1 ****  0
   32 H9        -2.6517    -2.0691     0.0222 H          1 ****  0
   33 H10       -2.3524     1.7804    -0.3718 H          1 ****  0
   34 H11        2.1435     2.4592    -0.0295 H          1 ****  0
   35 H12       -2.6573     1.2921     5.2602 H          1 ****  0
   36 H13       -0.1922     1.3215     5.2868 H          1 ****  0
   37 H14       -0.5369     1.5789     2.3442 H          1 ****  0
   38 H15        0.7579    -0.5410     3.9693 H          1 ****  0
   39 H16       -1.8560    -0.7375     2.3659 H          1 ****  0
   40 H17       -0.6788    -2.9075     2.5796 H          1 ****  0
   41 H18       -2.1200    -2.8679     3.5693 H          1 ****  0
   42 H19       -2.4313     1.1849     2.3489 H          1 ****  0
   43 H20       -1.4045     3.3455     5.1892 H          1 ****  0
   44 H21        1.7936     1.5534     4.0033 H          1 ****  0
   45 H22       -0.7806    -2.3188     5.3760 H          1 ****  0
@<TRIPOS>BOND
    1     1     2 1
    2     1     7 1
    3     1    11 1
    4     1    24 1
    5     2     3 1
    6     2     8 1
    7     2    25 1
    8     3     4 1
    9     3     9 1
   10     3    26 1
   11     4     5 1
   12     4    10 1
   13     4    27 1
   14     5     6 1
   15     5    11 1
   16     5    28 1
   17     6    12 1
   18     6    29 1
   19     6    30 1
   20     8    31 1
   21     9    32 1
   22    10    33 1
   23    12    34 1
   24    13    14 1
   25    13    19 1
   26    13    22 1
   27    13    35 1
   28    14    15 1
   29    14    20 1
   30    14    36 1
   31    15    16 1
   32    15    21 1
   33    15    37 1
   34    16     7 1
   35    16    17 1
   36    16    38 1
   37    17    18 1
   38    17    22 1
   39    17    39 1
   40    18    23 1
   41    18    40 1
   42    18    41 1
   43    19    42 1
   44    20    43 1
   45    21    44 1
   46    23    45 1
@<TRIPOS>SUBSTRUCTURE
1   ****   1
@<TRIPOS>MOLECULE
1cil
35  36  1  0  0
SMALL
FORMAL_CHARGES
@<TRIPOS>ATOM
    1 S1         2.9666     1.1423     0.1599 S.3        1 ****  0
    2 C1         3.5200    -0.4366    -0.0002 C.ar       1 ****  0
    3 C2         2.4809    -1.3527    -0.1508 C.ar       1 ****  0
    4 C3         1.2432    -0.7097    -0.1081 C.ar       1 ****  0
    5 C4        -0.1391    -0.5609    -0.8431 C.3        1 ****  0
    6 C5        -1.3410    -0.5945     0.3250 C.3        1 ****  0
    7 C6        -1.4360     0.8986     0.7861 C.3        1 ****  0
    8 S2        -0.0156     1.7252     0.2564 S.O2       1 ****  0
    9 C7         1.3612     0.6651     0.0605 C.ar       1 ****  0
   10 S3         5.2331    -0.8866     0.0516 S.O2       1 ****  0
   11 O1         5.4932    -1.7118     1.2980 O.2        1 ****  0
   12 O2         6.0884     0.3658     0.0854 O.2        1 ****  0
   13 N1         5.6204    -1.8142    -1.3223 N.am       1 ****  -1
   14 N2        -0.2387    -1.9596    -1.6239 N.4        1 ****  1
   15 C8        -2.7269     1.5426     0.1809 C.3        1 ****  0
   16 O3        -0.1443     2.0153     1.7385 O.2        1 ****  0
   17 O4         0.1279     3.0258    -0.5109 O.2        1 ****  0
   18 C9        -0.1697    -0.8995    -2.6456 C.3        1 ****  0
   19 C10       -0.3476    -1.5044    -4.0448 C.3        1 ****  0
   20 H1         2.6140    -2.4063    -0.2815 H          1 ****  0
   21 H2        -0.1920     0.3347    -1.4785 H          1 ****  0
   22 H3        -1.2766    -0.5042     1.4113 H          1 ****  0
   23 H4        -2.2650    -1.1439     0.1183 H          1 ****  0
   24 H5        -1.4189     0.9787     1.8593 H          1 ****  0
   25 H6         5.2513    -2.7321    -1.4208 H          1 ****  0
   26 H7         0.5307    -2.6134    -1.8165 H          1 ****  0
   27 H8        -1.1327    -2.4615    -1.7061 H          1 ****  0
   28 H9        -2.7025     1.6105     1.2531 H          1 ****  0
   29 H10       -3.5768     0.9517    -0.1074 H          1 ****  0
   30 H11       -2.7835     2.5038    -0.2480 H          1 ****  0
   31 H12        0.7819    -0.4097    -2.5884 H          1 ****  0
   32 H13       -0.9473    -0.1797    -2.4666 H          1 ****  0
   33 H14       -1.2990    -1.9926    -4.0996 H          1 ****  0
   34 H15        0.4279    -2.2215    -4.2203 H          1 ****  0
   35 H16       -0.2968    -0.7321    -4.7812 H          1 ****  0
@<TRIPOS>BOND
    1     1     2 ar
    2     1     9 ar
    3     2     3 ar
    4     2    10 1
    5     3     4 ar
    6     3    20 1
    7     4     5 1
    8     4     9 ar
    9     5     6 1
   10     5    14 1
   11     5    21 1
   12     6     7 1
   13     6    22 1
   14     6    23 1
   15     7     8 1
   16     7    15 1
   17     7    24 1
   18     8     9 1
   19     8    16 2
   20     8    17 2
   21    10    11 2
   22    10    12 2
   23    10    13 1
   24    13    25 1
   25    14    18 1
   26    14    26 1
   27    14    27 1
   28    15    28 1
   29    15    29 1
   30    15    30 1
   31    18    19 1
   32    18    31 1
   33    18    32 1
   34    19    33 1
   35    19    34 1
   36    19    35 1
@<TRIPOS>SUBSTRUCTURE
1   ****   1
@<TRIPOS>MOLECULE
1ckp
28  30  1  0  0
SMALL
FORMAL_CHARGES
@<TRIPOS>ATOM
    1 N1         1.1335    -0.6717    -0.0002 N.ar       1 ****  0
    2 C1        -2.8341     2.4727     0.0001 C.3        1 ****  0
    3 N2        -2.3997     1.1108     0.0001 N.ar       1 ****  0
    4 C2        -1.1476     0.7006     0.0000 C.ar       1 ****  0
    5 N3        -0.0113     1.3757     0.0002 N.ar       1 ****  0
    6 C3         1.1205     0.6677     0.0000 C.ar       1 ****  0
    7 C4         0.0050    -1.3788    -0.0004 C.ar       1 ****  0
    8 C5        -1.1750    -0.6619    -0.0002 C.ar       1 ****  0
    9 N4        -2.4369    -1.0695    -0.0003 N.ar       1 ****  0
   10 C6        -3.1942     0.0369    -0.0002 C.ar       1 ****  0
   11 N5         0.0186    -2.8426    -0.0006 N.pl3      1 ****  0
   12 C7         1.3167    -3.5364    -0.0008 C.ar       1 ****  0
   13 C8         2.5311    -2.8586    -0.0007 C.ar       1 ****  0
   14 C9         3.7258    -3.5687    -0.0008 C.ar       1 ****  0
   15 C10        3.7077    -4.9584    -0.0011 C.ar       1 ****  0
   16 C11        2.4952    -5.6376    -0.0012 C.ar       1 ****  0
   17 Cl1        2.4730    -7.3545    -0.0016 Cl         1 ****  0
   18 C12        1.3005    -4.9276    -0.0011 C.ar       1 ****  0
   19 H1        -2.3206     2.8907    -0.8783 H          1 ****  0
   20 H2        -2.3206     2.8906     0.8786 H          1 ****  0
   21 H3        -3.9211     2.6408     0.0002 H          1 ****  0
   22 H4         2.0801     1.2054     0.0001 H          1 ****  0
   23 H5        -4.2940     0.0572    -0.0002 H          1 ****  0
   24 H6        -0.8624    -3.3762    -0.0007 H          1 ****  0
   25 H7         2.5461    -1.7587    -0.0004 H          1 ****  0
   26 H8         4.6854    -3.0310    -0.0007 H          1 ****  0
   27 H9         4.6531    -5.5207    -0.0013 H          1 ****  0
   28 H10        0.3413    -5.4660    -0.0012 H          1 ****  0
@<TRIPOS>BOND
    1     1     6 ar
    2     1     7 ar
    3     2     3 1
    4     2    19 1
    5     2    20 1
    6     2    21 1
    7     3     4 ar
    8     3    10 ar
    9     4     5 ar
   10     4     8 ar
   11     5     6 ar
   12     6    22 1
   13     7     8 ar
   14     7    11 1
   15     8     9 ar
   16     9    10 ar
   17    10    23 1
   18    11    12 1
   19    11    24 1
   20    12    13 ar
   21    12    18 ar
   22    13    14 ar
   23    13    25 1
   24    14    15 ar
   25    14    26 1
   26    15    16 ar
   27    15    27 1
   28    16    17 1
   29    16    18 ar
   30    18    28 1
@<TRIPOS>SUBSTRUCTURE
1   ****   1
@<TRIPOS>MOLECULE
1cle
123  126  1  0  0
SMALL
FORMAL_CHARGES
@<TRIPOS>ATOM
    1 C1         1.4910    -0.5858    -0.1461 C.3        1 ****  0
    2 C2         1.3998     0.9351    -0.0538 C.3        1 ****  0
    3 C3         0.4554     1.1834     1.1317 C.3        1 ****  0
    4 C4        -0.9794     0.8442     0.6694 C.3        1 ****  0
    5 C5        -1.0350    -0.3786    -0.2052 C.2        1 ****  0
    6 C6        -2.2211    -0.5376    -0.8792 C.2        1 ****  0
    7 C7        -2.3995    -1.5017    -2.0070 C.3        1 ****  0
    8 C8        -1.1919    -2.4311    -2.2851 C.3        1 ****  0
    9 C9        -0.7015    -1.0031    -1.8511 C.3        1 ****  0
   10 C10        0.1516    -1.2595    -0.5383 C.3        1 ****  0
   11 C11        0.2590    -0.4835    -3.0130 C.3        1 ****  0
   12 C12       -3.6390    -3.2871    -5.5131 C.3        1 ****  0
   13 C13       -2.3144    -2.5518    -5.1578 C.3        1 ****  0
   14 C14       -1.1963    -2.9140    -3.7521 C.3        1 ****  0
   15 C15        0.0146    -3.8773    -4.1072 C.3        1 ****  0
   16 C16        0.3473    -3.5794    -5.6588 C.3        1 ****  0
   17 C17       -1.0987    -3.3147    -5.3207 C.3        1 ****  0
   18 C18       -2.1264    -0.7793    -4.9967 C.3        1 ****  0
   19 C19        0.1096    -2.5611     0.2965 C.3        1 ****  0
   20 C20       -1.1612    -4.0969    -6.6421 C.3        1 ****  0
   21 C21       -1.6881    -3.8707    -8.1170 C.3        1 ****  0
   22 C22       -2.3631    -4.7693    -5.9380 C.3        1 ****  0
   23 C23       -3.5464    -5.5288    -6.5026 C.3        1 ****  0
   24 C24       -3.4601    -6.9568    -5.9330 C.3        1 ****  0
   25 C25       -4.7916    -7.6739    -6.1286 C.3        1 ****  0
   26 C26       -4.6674    -9.1276    -5.6366 C.3        1 ****  0
   27 C27       -5.8689    -6.9429    -5.3076 C.3        1 ****  0
   28 C28        0.1830    -0.5975     2.9363 C.2        1 ****  0
   29 C29        0.7875    -1.4110     4.0285 C.3        1 ****  0
   30 C30        0.3878    -2.8707     3.7571 C.3        1 ****  0
   31 C31        0.8758    -3.7977     4.8664 C.3        1 ****  0
   32 C32        0.4518    -5.2355     4.5164 C.3        1 ****  0
   33 C33        0.8190    -6.1580     5.6817 C.3        1 ****  0
   34 C34        0.4132    -7.6065     5.3659 C.3        1 ****  0
   35 C35        0.7425    -8.4642     6.5962 C.3        1 ****  0
   36 C36        0.4142    -9.9023     6.3446 C.2        1 ****  0
   37 C37        0.6175   -10.7866     7.3178 C.2        1 ****  0
   38 C38        1.1533   -10.3500     8.6452 C.3        1 ****  0
   39 C39        1.3441   -11.5581     9.5145 C.2        1 ****  0
   40 C40        1.7669   -11.4149    10.7675 C.2        1 ****  0
   41 C41        2.0474   -10.0472    11.3151 C.3        1 ****  0
   42 C42        2.5424   -10.1785    12.7652 C.3        1 ****  0
   43 C43        2.8155    -8.7820    13.3487 C.3        1 ****  0
   44 C44        3.3109    -8.9270    14.7990 C.3        1 ****  0
   45 C45        3.5774    -7.5328    15.3940 C.3        1 ****  0
   46 O1        -0.9729    -0.8821     2.6015 O.2        1 ****  0
   47 O2         0.9881     0.4047     2.2815 O.3        1 ****  0
   48 H1         2.2512    -0.8528    -0.8789 H          1 ****  0
   49 H2         1.8196    -0.9812     0.8109 H          1 ****  0
   50 H3         2.3475     1.3379     0.1552 H          1 ****  0
   51 H4         0.9774     1.3217    -0.9314 H          1 ****  0
   52 H5         0.4696     2.2526     1.3944 H          1 ****  0
   53 H6        -1.6070     0.6856     1.5416 H          1 ****  0
   54 H7        -1.3875     1.6873     0.1252 H          1 ****  0
   55 H8        -3.0588     0.0582    -0.5820 H          1 ****  0
   56 H9        -3.2842    -2.1204    -1.8061 H          1 ****  0
   57 H10       -2.6305    -0.9401    -2.9185 H          1 ****  0
   58 H11       -1.2718    -3.3011    -1.6332 H          1 ****  0
   59 H12       -1.5449    -0.3300    -1.6811 H          1 ****  0
   60 H13        1.1428     0.0654    -2.8093 H          1 ****  0
   61 H14       -0.6003     0.1366    -2.9297 H          1 ****  0
   62 H15        0.5038    -0.2885    -5.1560 H          1 ****  0
   63 H16        1.1524    -1.7751    -4.5023 H          1 ****  0
   64 H17       -2.1342    -3.4074    -3.9430 H          1 ****  0
   65 H18        0.8495    -3.6355    -3.5118 H          1 ****  0
   66 H19       -0.2813    -4.8791    -3.9943 H          1 ****  0
   67 H20        0.2956    -4.4675    -6.2099 H          1 ****  0
   68 H21        1.2776    -3.1000    -5.7368 H          1 ****  0
   69 H22       -1.4169    -4.0130    -4.5360 H          1 ****  0
   70 H23       -1.8663    -0.1103    -5.7902 H          1 ****  0
   71 H24       -2.2592    -0.2229    -4.0924 H          1 ****  0
   72 H25       -3.0379    -1.2867    -5.2413 H          1 ****  0
   73 H26        0.0940    -2.3661     1.3385 H          1 ****  0
   74 H27        0.9018    -3.2203     0.0473 H          1 ****  0
   75 H28       -0.8418    -3.0875     0.0494 H          1 ****  0
   76 H29       -0.2782    -4.7513    -6.5950 H          1 ****  0
   77 H30       -0.8317    -4.5034    -8.1181 H          1 ****  0
   78 H31       -1.5169    -3.0200    -8.7339 H          1 ****  0
   79 H32       -2.5293    -4.4313    -8.5315 H          1 ****  0
   80 H33       -2.5541    -4.5477    -4.8889 H          1 ****  0
   81 H34       -1.4826    -5.4146    -5.9652 H          1 ****  0
   82 H35       -3.4803    -5.5620    -7.5570 H          1 ****  0
   83 H36       -4.4489    -5.0723    -6.1859 H          1 ****  0
   84 H37       -3.2309    -6.9114    -4.8878 H          1 ****  0
   85 H38       -2.6851    -7.4984    -6.4419 H          1 ****  0
   86 H39       -5.0620    -7.6656    -7.1923 H          1 ****  0
   87 H40       -4.4096    -9.1336    -4.5987 H          1 ****  0
   88 H41       -3.9071    -9.6310    -6.1953 H          1 ****  0
   89 H42       -5.6042    -9.6335    -5.7738 H          1 ****  0
   90 H43       -5.9602    -5.9330    -5.6424 H          1 ****  0
   91 H44       -5.6102    -6.9567    -4.2717 H          1 ****  0
   92 H45       -6.8166    -7.4442    -5.4400 H          1 ****  0
   93 H46        1.8432    -1.3194     4.0014 H          1 ****  0
   94 H47        0.3979    -1.1035     4.9619 H          1 ****  0
   95 H48       -0.6881    -2.9385     3.6840 H          1 ****  0
   96 H49        0.8104    -3.1878     2.8179 H          1 ****  0
   97 H50        1.9397    -3.7458     4.9339 H          1 ****  0
   98 H51        0.4340    -3.5119     5.7917 H          1 ****  0
   99 H52       -0.6052    -5.2675     4.3553 H          1 ****  0
  100 H53        0.9625    -5.5545     3.6356 H          1 ****  0
  101 H54        1.8806    -6.1141     5.8513 H          1 ****  0
  102 H55        0.3112    -5.8320     6.5691 H          1 ****  0
  103 H56       -0.6328    -7.6502     5.1699 H          1 ****  0
  104 H57        0.9648    -7.9581     4.5290 H          1 ****  0
  105 H58        1.7918    -8.3731     6.8247 H          1 ****  0
  106 H59        0.1754    -8.1127     7.4390 H          1 ****  0
  107 H60        0.0228   -10.2140     5.3988 H          1 ****  0
  108 H61        0.3959   -11.8198     7.1498 H          1 ****  0
  109 H62        2.0931    -9.8575     8.5072 H          1 ****  0
  110 H63        0.4604    -9.6839     9.1090 H          1 ****  0
  111 H64        1.1402   -12.5343     9.1266 H          1 ****  0
  112 H65        1.9072   -12.2769    11.3857 H          1 ****  0
  113 H66        2.8016    -9.5723    10.7222 H          1 ****  0
  114 H67        1.1533    -9.4640    11.2959 H          1 ****  0
  115 H68        1.7937   -10.6715    13.3553 H          1 ****  0
  116 H69        3.4444   -10.7545    12.7843 H          1 ****  0
  117 H70        3.5654    -8.2901    12.7630 H          1 ****  0
  118 H71        1.9153    -8.2069    13.3362 H          1 ****  0
  119 H72        4.2151    -9.4982    14.8126 H          1 ****  0
  120 H73        2.5638    -9.4274    15.3836 H          1 ****  0
  121 H74        2.6736    -6.9608    15.3821 H          1 ****  0
  122 H75        4.3225    -7.0327    14.8117 H          1 ****  0
  123 H76        3.9226    -7.6338    16.4044 H          1 ****  0
@<TRIPOS>BOND
    1     1     2 1
    2     1    10 1
    3     1    48 1
    4     1    49 1
    5     2     3 1
    6     2    50 1
    7     2    51 1
    8     3     4 1
    9     3    47 1
   10     3    52 1
   11     4     5 1
   12     4    53 1
   13     4    54 1
   14     5     6 2
   15     5    10 1
   16     6     7 1
   17     6    55 1
   18     7    56 1
   19     7    57 1
   20     8     7 1
   21     8     9 1
   22     8    14 1
   23     8    58 1
   24     9    10 1
   25     9    11 1
   26     9    59 1
   27    10    19 1
   28    11    12 1
   29    11    60 1
   30    11    61 1
   31    12    13 1
   32    12    62 1
   33    12    63 1
   34    13    14 1
   35    13    17 1
   36    13    18 1
   37    14    15 1
   38    14    64 1
   39    15    16 1
   40    15    65 1
   41    15    66 1
   42    16    67 1
   43    16    68 1
   44    17    16 1
   45    17    20 1
   46    17    69 1
   47    18    70 1
   48    18    71 1
   49    18    72 1
   50    19    73 1
   51    19    74 1
   52    19    75 1
   53    20    21 1
   54    20    22 1
   55    20    76 1
   56    21    77 1
   57    21    78 1
   58    21    79 1
   59    22    23 1
   60    22    80 1
   61    22    81 1
   62    23    24 1
   63    23    82 1
   64    23    83 1
   65    24    25 1
   66    24    84 1
   67    24    85 1
   68    25    26 1
   69    25    27 1
   70    25    86 1
   71    26    87 1
   72    26    88 1
   73    26    89 1
   74    27    90 1
   75    27    91 1
   76    27    92 1
   77    28    29 1
   78    28    46 2
   79    28    47 1
   80    29    30 1
   81    29    93 1
   82    29    94 1
   83    30    31 1
   84    30    95 1
   85    30    96 1
   86    31    32 1
   87    31    97 1
   88    31    98 1
   89    32    33 1
   90    32    99 1
   91    32   100 1
   92    33    34 1
   93    33   101 1
   94    33   102 1
   95    34    35 1
   96    34   103 1
   97    34   104 1
   98    35    36 1
   99    35   105 1
  100    35   106 1
  101    36    37 2
  102    36   107 1
  103    37    38 1
  104    37   108 1
  105    38    39 1
  106    38   109 1
  107    38   110 1
  108    39    40 2
  109    39   111 1
  110    40    41 1
  111    40   112 1
  112    41    42 1
  113    41   113 1
  114    41   114 1
  115    42    43 1
  116    42   115 1
  117    42   116 1
  118    43    44 1
  119    43   117 1
  120    43   118 1
  121    44    45 1
  122    44   119 1
  123    44   120 1
  124    45   121 1
  125    45   122 1
  126    45   123 1
@<TRIPOS>SUBSTRUCTURE
1   ****   1
@<TRIPOS>MOLECULE
1com
24  24  1  0  0
SMALL
FORMAL_CHARGES
@<TRIPOS>ATOM
    1 C1         1.3112    -0.7578    -0.0500 C.3        1 ****  0
    2 C2         0.0013    -1.4300    -0.3558 C.2        1 ****  0
    3 C3        -1.1518    -0.7634    -0.2910 C.2        1 ****  0
    4 C4        -1.0861     0.6275    -1.0002 C.3        1 ****  0
    5 C5         0.0858     1.3789    -0.2902 C.2        1 ****  0
    6 C6         1.2393     0.7130    -0.3550 C.2        1 ****  0
    7 C7         2.3810    -1.3738    -0.9110 C.2        1 ****  0.0000
    8 C8         1.6662    -0.9619     1.4455 C.3        1 ****  0
    9 C9         3.0088    -0.3721     1.8256 C.2        1 ****  0
   10 C10        3.4830    -0.5114     3.2003 C.2        1 ****  0.0000
   11 O1        -2.3124     1.3358    -0.5036 O.3        1 ****  0
   12 O2         2.5206    -2.6016    -0.9374 O.co2      1 ****  -0.50
   13 O3         3.1903    -0.5815    -1.6596 O.co2      1 ****  -0.50
   14 O4         3.7201     0.2032     0.9914 O.2        1 ****  0
   15 O5         4.5809    -0.0511     3.5284 O.co2      1 ****  -0.50
   16 O6         2.7146    -1.1572     4.1161 O.co2      1 ****  -0.50
   17 H1        -0.0059    -2.4930    -0.6386 H          1 ****  0
   18 H2        -2.0920    -1.2849    -0.5233 H          1 ****  0
   19 H3        -0.9847     0.5693    -2.0940 H          1 ****  0
   20 H4         0.0680     2.4540    -0.5220 H          1 ****  0
   21 H5         2.1567     1.2503    -0.6373 H          1 ****  0
   22 H6         0.8850    -0.4972     2.0650 H          1 ****  0
   23 H7         1.6750    -2.0391     1.6680 H          1 ****  0
   24 H8        -3.1424     0.8920    -0.1967 H          1 ****  0
@<TRIPOS>BOND
    1     1     2 1
    2     1     6 1
    3     1     7 1
    4     1     8 1
    5     2     3 2
    6     2    17 1
    7     3     4 1
    8     3    18 1
    9     4     5 1
   10     4    11 1
   11     4    19 1
   12     5     6 2
   13     5    20 1
   14     6    21 1
   15     7    12 ar
   16     7    13 ar
   17     8     9 1
   18     8    22 1
   19     8    23 1
   20     9    10 1
   21     9    14 2
   22    10    15 ar
   23    10    16 ar
   24    11    24 1
@<TRIPOS>SUBSTRUCTURE
1   ****   1
@<TRIPOS>MOLECULE
1coy
49  52  1  0  0
SMALL
FORMAL_CHARGES
@<TRIPOS>ATOM
    1 O1         0.5770     1.0496     2.0409 O.3        1 ****  0
    2 C1         1.2487    -0.4518     0.0464 C.3        1 ****  0
    3 C2         1.1082     1.0242    -0.2876 C.3        1 ****  0
    4 C3         0.1274     1.5296     0.7711 C.3        1 ****  0
    5 C4        -1.2766     0.9862     0.4801 C.3        1 ****  0
    6 C5        -1.3131    -0.4471    -0.0413 C.2        1 ****  0
    7 C6        -2.4579    -0.8521    -0.5533 C.2        1 ****  0
    8 C7        -2.5426    -2.1312    -1.3248 C.3        1 ****  0
    9 C8        -1.3128    -2.2359    -2.2891 C.3        1 ****  0
   10 C9        -0.1327    -1.3422    -1.8487 C.3        1 ****  0
   11 C10       -0.0080    -1.2348    -0.3444 C.3        1 ****  0
   12 C11        1.1126    -1.7974    -2.6008 C.3        1 ****  0
   13 C12        0.8678    -1.3806    -4.0629 C.3        1 ****  0
   14 C13       -0.4602    -0.5373    -4.5341 C.3        1 ****  0
   15 C14       -1.6686    -1.7963    -3.7162 C.3        1 ****  0
   16 C15       -2.6492    -2.8458    -4.2789 C.3        1 ****  0
   17 C16       -1.7387    -4.1109    -4.4135 C.3        1 ****  0
   18 C17       -0.4832     0.9332    -4.4406 C.2        1 ****  0
   19 C18       -0.7304    -1.4400    -6.0287 C.3        1 ****  0
   20 C19        0.0853    -2.6200     0.3240 C.3        1 ****  0
   21 O2         0.5644    -4.1126    -5.1250 O.2        1 ****  0
   22 H1         1.4819     1.3980     2.2405 H          1 ****  0
   23 H2         2.1138    -0.8642    -0.4935 H          1 ****  0
   24 H3         1.4229    -0.5644     1.1267 H          1 ****  0
   25 H4         0.6794     1.1492    -1.2928 H          1 ****  0
   26 H5         2.0776     1.5330    -0.1810 H          1 ****  0
   27 H6         0.0841     2.6288     0.7649 H          1 ****  0
   28 H7        -1.8737     1.0400     1.4024 H          1 ****  0
   29 H8        -1.7632     1.6410    -0.2578 H          1 ****  0
   30 H9        -3.3624    -0.2423    -0.4117 H          1 ****  0
   31 H10       -2.5351    -2.9820    -0.6276 H          1 ****  0
   32 H11       -3.4718    -2.1455    -1.9134 H          1 ****  0
   33 H12       -1.0247    -3.2970    -2.2561 H          1 ****  0
   34 H13       -0.3085    -0.2932    -2.1291 H          1 ****  0
   35 H14        2.0010    -1.2825    -2.2064 H          1 ****  0
   36 H15        1.2166    -2.8905    -2.5337 H          1 ****  0
   37 H16        1.7194    -1.7047    -4.6792 H          1 ****  0
   38 H17        0.7946    -0.2845    -4.1185 H          1 ****  0
   39 H18       -2.0372    -0.7601    -3.6932 H          1 ****  0
   40 H19       -3.4609    -3.0350    -3.5610 H          1 ****  0
   41 H20       -3.0182    -2.5350    -5.2674 H          1 ****  0
   42 H21       -2.0721    -4.7362    -5.2549 H          1 ****  0
   43 H22       -1.6944    -4.6544    -3.4582 H          1 ****  0
   44 H23        0.1092    -1.6753    -6.6993 H          1 ****  0
   45 H24       -0.8476    -0.3483    -5.9615 H          1 ****  0
   46 H25       -1.6547    -1.8863    -6.4245 H          1 ****  0
   47 H26        0.1236    -2.5168     1.4185 H          1 ****  0
   48 H27        0.9752    -3.1595    -0.0324 H          1 ****  0
   49 H28       -0.8099    -3.2002     0.0556 H          1 ****  0
@<TRIPOS>BOND
    1     1    22 1
    2     2     3 1
    3     2    11 1
    4     2    23 1
    5     2    24 1
    6     3     4 1
    7     3    25 1
    8     3    26 1
    9     4     1 1
   10     4     5 1
   11     4    27 1
   12     5     6 1
   13     5    28 1
   14     5    29 1
   15     6     7 2
   16     6    11 1
   17     7     8 1
   18     7    30 1
   19     8    31 1
   20     8    32 1
   21     9     8 1
   22     9    10 1
   23     9    15 1
   24     9    33 1
   25    10    11 1
   26    10    12 1
   27    10    34 1
   28    11    20 1
   29    12    13 1
   30    12    35 1
   31    12    36 1
   32    13    14 1
   33    13    37 1
   34    13    38 1
   35    14    15 1
   36    14    18 1
   37    14    19 1
   38    15    16 1
   39    15    39 1
   40    16    17 1
   41    16    40 1
   42    16    41 1
   43    17    18 1
   44    17    42 1
   45    17    43 1
   46    18    21 2
   47    19    44 1
   48    19    45 1
   49    19    46 1
   50    20    47 1
   51    20    48 1
   52    20    49 1
@<TRIPOS>SUBSTRUCTURE
1   ****   1
@<TRIPOS>MOLECULE
1cps
31  31  1  0  0
SMALL
FORMAL_CHARGES
@<TRIPOS>ATOM
    1 C1         4.9583    -1.4356    -0.4644 C.3        1 ****  0
    2 C2         3.5496    -1.5270    -1.1229 C.3        1 ****  0
    3 C3         3.3673    -0.2629    -2.0031 C.2        1 ****  0.0000
    4 O1         3.2336    -1.1753    -2.8258 O.co2      1 ****  -0.50
    5 C4         2.5115    -1.4504    -0.0039 C.3        1 ****  0
    6 C5         1.2084    -0.6974    -0.0001 C.ar       1 ****  0
    7 C6         1.2089     0.6915     0.0001 C.ar       1 ****  0
    8 C7         0.0043    -1.3930    -0.0003 C.ar       1 ****  0
    9 C8         0.0048     1.3871     0.0001 C.ar       1 ****  0
   10 C9        -1.1987    -0.6980    -0.0003 C.ar       1 ****  0
   11 C10       -1.1983     0.6923    -0.0001 C.ar       1 ****  0
   12 O2         3.2472     1.0314    -2.3978 O.co2      1 ****  -0.50
   13 S1         6.4590    -0.4881    -0.8912 S.3        1 ****  0
   14 N1         7.6985    -1.3929    -0.6633 N.2        1 ****  0
   15 N2         6.5583     0.7506     0.0374 N.2        1 ****  0
   16 C11        6.4551     0.0533    -2.6221 C.3        1 ****  0
   17 H1         4.8724    -2.2988    -1.1408 H          1 ****  0
   18 H2         5.0539    -1.8197     0.5619 H          1 ****  0
   19 H3         3.4362    -2.4678    -1.6814 H          1 ****  0
   20 H4         2.4039    -2.3544    -0.6213 H          1 ****  0
   21 H5         2.7544    -1.7556     1.0246 H          1 ****  0
   22 H6         2.1617     1.2413     0.0003 H          1 ****  0
   23 H7         0.0042    -2.4930    -0.0005 H          1 ****  0
   24 H8         0.0048     2.4871     0.0003 H          1 ****  0
   25 H9        -2.1515    -1.2478    -0.0004 H          1 ****  0
   26 H10       -2.1508     1.2424    -0.0001 H          1 ****  0
   27 H11        7.5880    -2.4160    -0.6179 H          1 ****  0
   28 H12        6.6519     0.6250     1.0554 H          1 ****  0
   29 H13        5.5635     0.6762    -2.7861 H          1 ****  0
   30 H14        6.3847    -0.8388    -3.2618 H          1 ****  0
   31 H15        7.3684     0.6210    -2.8534 H          1 ****  0
@<TRIPOS>BOND
    1     1     2 1
    2     1    13 1
    3     1    17 1
    4     1    18 1
    5     2     3 1
    6     2     5 1
    7     2    19 1
    8     3     4 ar
    9     3    12 ar
   10     5     6 1
   11     5    20 1
   12     5    21 1
   13     6     7 ar
   14     6     8 ar
   15     7     9 ar
   16     7    22 1
   17     8    10 ar
   18     8    23 1
   19     9    11 ar
   20     9    24 1
   21    10    11 ar
   22    10    25 1
   23    11    26 1
   24    13    14 2
   25    13    15 2
   26    13    16 1
   27    14    27 1
   28    15    28 1
   29    16    29 1
   30    16    30 1
   31    16    31 1
@<TRIPOS>SUBSTRUCTURE
1   ****   1
@<TRIPOS>MOLECULE
1cqp
65  67  1  0  0
SMALL
FORMAL_CHARGES
@<TRIPOS>ATOM
    1 C1         1.1555    -0.6706     0.0561 C.3        1 ****  0
    2 C2         1.4352     0.8248     0.2186 C.3        1 ****  0
    3 C3        -0.0157     0.4450     0.6709 C.3        1 ****  0
    4 C4        -0.2459     1.1631     2.0808 C.3        1 ****  0
    5 C5        -1.0319     1.1221    -0.2593 C.2        1 ****  0
    6 C6        -1.0015     0.0435    -1.0488 C.2        1 ****  0
    7 C7        -2.2031    -0.2991    -1.8427 C.2        1 ****  0
    8 C8        -2.2703    -1.4320    -2.5533 C.2        1 ****  0
    9 C9        -0.7440    -1.3638    -2.4970 C.3        1 ****  0
   10 C10       -0.2841    -2.0098    -3.8863 C.3        1 ****  0
   11 C11       -0.1870    -2.3210    -1.3717 C.3        1 ****  0
   12 C12       -0.3082    -1.1764    -0.2857 C.3        1 ****  0
   13 C13       -0.8626    -2.9694    -0.0836 C.3        1 ****  0
   14 C14       -2.1014    -2.2826     0.5198 C.3        1 ****  0
   15 C15       -2.6763    -2.9237     1.8301 C.3        1 ****  0
   16 C16       -1.8338    -2.7088     3.1434 C.3        1 ****  0
   17 C17       -1.1002    -3.7968     2.3054 C.3        1 ****  0
   18 O1         0.3569    -3.3977     2.2583 O.3        1 ****  0
   19 C18       -1.1048    -5.0479     3.2375 C.3        1 ****  0
   20 C19       -2.1520    -5.3196     2.1616 C.2        1 ****  0
   21 O2        -2.4053    -6.4994     1.8955 O.2        1 ****  0
   22 O3        -2.9824    -4.3144     1.5658 O.3        1 ****  0
   23 O4         2.3802    -1.4298    -0.1387 O.3        1 ****  0
   24 C20        3.1697    -1.0260    -1.2506 C.2        1 ****  0
   25 O5         2.8475    -0.0868    -1.9875 O.2        1 ****  0
   26 C21        4.6500    -0.6826    -1.4125 C.3        1 ****  0
   27 C22        5.4164    -1.5680    -0.3728 C.3        1 ****  0
   28 C23        5.0488    -1.1776    -2.8381 C.3        1 ****  0
   29 C24        6.3555    -1.9173    -3.1721 C.3        1 ****  0
   30 H1         0.6585    -1.0410     0.9526 H          1 ****  0
   31 H2         1.7838     1.2260    -0.7059 H          1 ****  0
   32 H3         2.1715     0.9703     0.9800 H          1 ****  0
   33 H4        -0.1561    -0.6438     0.7154 H          1 ****  0
   34 H5         0.5445     1.4680     2.7355 H          1 ****  0
   35 H6        -0.3754     0.1027     2.1531 H          1 ****  0
   36 H7        -1.1528     1.6555     2.3588 H          1 ****  0
   37 H8        -1.9168     1.7236    -0.2533 H          1 ****  0
   38 H9        -3.0357     0.3729    -1.8488 H          1 ****  0
   39 H10       -3.1731    -1.6645    -3.0785 H          1 ****  0
   40 H11       -0.3874    -0.3328    -2.3606 H          1 ****  0
   41 H12        0.0905    -1.0166    -3.8037 H          1 ****  0
   42 H13       -0.8737    -2.1078    -4.7674 H          1 ****  0
   43 H14        0.5682    -2.6907    -3.9681 H          1 ****  0
   44 H15        0.7120    -2.9232    -1.5644 H          1 ****  0
   45 H16       -0.8420    -1.5249     0.5926 H          1 ****  0
   46 H17       -1.1272    -4.0253    -0.3166 H          1 ****  0
   47 H18       -0.0929    -3.0605     0.7116 H          1 ****  0
   48 H19       -2.8962    -2.2573    -0.2387 H          1 ****  0
   49 H20       -1.8581    -1.2267     0.7195 H          1 ****  0
   50 H21       -3.6258    -2.3934     1.9929 H          1 ****  0
   51 H22       -2.4785    -2.8683     4.0102 H          1 ****  0
   52 H23       -1.5100    -1.6640     3.1918 H          1 ****  0
   53 H24       -1.5969    -3.9786     1.3428 H          1 ****  0
   54 H25        0.6881    -2.4699     2.3168 H          1 ****  0
   55 H26       -1.5251    -5.2981     4.2109 H          1 ****  0
   56 H27       -0.2561    -5.7179     3.0834 H          1 ****  0
   57 H28        4.8629     0.3875    -1.2789 H          1 ****  0
   58 H29        4.9822    -1.9606     0.5220 H          1 ****  0
   59 H30        5.6259    -0.5277    -0.2408 H          1 ****  0
   60 H31        6.3305    -2.0910    -0.5839 H          1 ****  0
   61 H32        5.2549    -0.1353    -2.7029 H          1 ****  0
   62 H33        4.3536    -1.2986    -3.6475 H          1 ****  0
   63 H34        6.1484    -2.9587    -3.3076 H          1 ****  0
   64 H35        7.0475    -1.7962    -2.3645 H          1 ****  0
   65 H36        6.7776    -1.5158    -4.0693 H          1 ****  0
@<TRIPOS>BOND
    1     1     2 1
    2     1    12 1
    3     1    23 1
    4     1    30 1
    5     2     3 1
    6     2    31 1
    7     2    32 1
    8     3     4 1
    9     3     5 1
   10     3    33 1
   11     4    34 1
   12     4    35 1
   13     4    36 1
   14     5     6 2
   15     5    37 1
   16     6     7 1
   17     7     8 2
   18     7    38 1
   19     8     9 1
   20     8    39 1
   21     9    10 1
   22     9    11 1
   23     9    40 1
   24    10    41 1
   25    10    42 1
   26    10    43 1
   27    11    12 1
   28    11    13 1
   29    11    44 1
   30    12     6 1
   31    12    45 1
   32    13    14 1
   33    13    46 1
   34    13    47 1
   35    14    48 1
   36    14    49 1
   37    15    14 1
   38    15    16 1
   39    15    22 1
   40    15    50 1
   41    16    17 1
   42    16    51 1
   43    16    52 1
   44    17    18 1
   45    17    19 1
   46    17    53 1
   47    18    54 1
   48    19    20 1
   49    19    55 1
   50    19    56 1
   51    20    21 2
   52    20    22 1
   53    23    24 1
   54    24    25 2
   55    24    26 1
   56    26    27 1
   57    26    28 1
   58    26    57 1
   59    27    58 1
   60    27    59 1
   61    27    60 1
   62    28    29 1
   63    28    61 1
   64    28    62 1
   65    29    63 1
   66    29    64 1
   67    29    65 1
@<TRIPOS>SUBSTRUCTURE
1   ****   1
@<TRIPOS>MOLECULE
1cvu
53  52  1  0  0
SMALL
FORMAL_CHARGES
@<TRIPOS>ATOM
    1 C1        24.1230     0.7484     0.0000 C.2        1 ****  0.0000
    2 C2        22.8936    -0.1164     0.0001 C.3        1 ****  0
    3 C3        21.6316     0.7689     0.0001 C.3        1 ****  0
    4 C4        20.3776    -0.1286     0.0001 C.3        1 ****  0
    5 C5        19.1389     0.7240     0.0001 C.2        1 ****  0
    6 C6        17.9359     0.1509     0.0001 C.2        1 ****  0
    7 C7        17.8140    -1.3487     0.0002 C.3        1 ****  0
    8 C8        16.3608    -1.7425     0.0002 C.2        1 ****  0
    9 C9        16.0193    -3.0307     0.0003 C.2        1 ****  0
   10 C10       17.0820    -4.0973     0.0004 C.3        1 ****  0
   11 C11       16.4329    -5.4553     0.0005 C.2        1 ****  0
   12 C12       17.1804    -6.5587     0.0007 C.2        1 ****  0
   13 C13       18.6810    -6.4465     0.0008 C.3        1 ****  0
   14 C14       19.3009    -7.8172     0.0009 C.2        1 ****  0
   15 C15       20.6271    -7.9442     0.0011 C.2        1 ****  0
   16 C16       21.5058    -6.7247     0.0011 C.3        1 ****  0
   17 C17       22.9849    -7.1592     0.0012 C.3        1 ****  0
   18 C18       23.8919    -5.9138     0.0013 C.3        1 ****  0
   19 C19       25.3684    -6.3540     0.0014 C.3        1 ****  0
   20 C20       26.2773    -5.1106     0.0014 C.3        1 ****  0
   21 O1        25.2434     0.2296     0.0000 O.co2      1 ****  -0.50
   22 O2        24.0005     2.1017    -0.0001 O.co2      1 ****  -0.50
   23 H1        22.8936    -0.7524    -0.8974 H          1 ****  0
   24 H2        22.8929    -0.7530     0.8972 H          1 ****  0
   25 H3        21.6282     1.4033     0.8987 H          1 ****  0
   26 H4        21.6275     1.4038    -0.8982 H          1 ****  0
   27 H5        20.3830    -0.7648    -0.8972 H          1 ****  0
   28 H6        20.3823    -0.7653     0.8971 H          1 ****  0
   29 H7        19.2258     1.8206     0.0001 H          1 ****  0
   30 H8        17.0303     0.7753     0.0001 H          1 ****  0
   31 H9        18.3027    -1.7556    -0.8974 H          1 ****  0
   32 H10       18.3027    -1.7566     0.8973 H          1 ****  0
   33 H11       15.5808    -0.9669     0.0002 H          1 ****  0
   34 H12       14.9569    -3.3159     0.0003 H          1 ****  0
   35 H13       17.7081    -3.9911    -0.8978 H          1 ****  0
   36 H14       17.7089    -3.9916     0.8981 H          1 ****  0
   37 H15       15.3360    -5.5374     0.0004 H          1 ****  0
   38 H16       16.7016    -7.5490     0.0008 H          1 ****  0
   39 H17       19.0065    -5.8992    -0.8962 H          1 ****  0
   40 H18       19.0073    -5.8989     0.8972 H          1 ****  0
   41 H19       18.6611    -8.7120     0.0009 H          1 ****  0
   42 H20       21.0811    -8.9461     0.0012 H          1 ****  0
   43 H21       21.3005    -6.1244    -0.8975 H          1 ****  0
   44 H22       21.3009    -6.1234     0.8992 H          1 ****  0
   45 H23       23.1899    -7.7607     0.8991 H          1 ****  0
   46 H24       23.1909    -7.7611    -0.8961 H          1 ****  0
   47 H25       23.6892    -5.3123    -0.8972 H          1 ****  0
   48 H26       23.6895    -5.3114     0.8992 H          1 ****  0
   49 H27       25.5725    -6.9561    -0.8963 H          1 ****  0
   50 H28       25.5715    -6.9557     0.8996 H          1 ****  0
   51 H29       26.0749    -4.5082     0.8992 H          1 ****  0
   52 H30       26.0751    -4.5082    -0.8965 H          1 ****  0
   53 H31       27.3314    -5.4252     0.0015 H          1 ****  0
@<TRIPOS>BOND
    1     1     2 1
    2     1    21 ar
    3     1    22 ar
    4     2     3 1
    5     2    23 1
    6     2    24 1
    7     3     4 1
    8     3    25 1
    9     3    26 1
   10     4     5 1
   11     4    27 1
   12     4    28 1
   13     5     6 2
   14     5    29 1
   15     6     7 1
   16     6    30 1
   17     7     8 1
   18     7    31 1
   19     7    32 1
   20     8     9 2
   21     8    33 1
   22     9    10 1
   23     9    34 1
   24    10    11 1
   25    10    35 1
   26    10    36 1
   27    11    12 2
   28    11    37 1
   29    12    13 1
   30    12    38 1
   31    13    14 1
   32    13    39 1
   33    13    40 1
   34    14    15 2
   35    14    41 1
   36    15    16 1
   37    15    42 1
   38    16    17 1
   39    16    43 1
   40    16    44 1
   41    17    18 1
   42    17    45 1
   43    17    46 1
   44    18    19 1
   45    18    47 1
   46    18    48 1
   47    19    20 1
   48    19    49 1
   49    19    50 1
   50    20    51 1
   51    20    52 1
   52    20    53 1
@<TRIPOS>SUBSTRUCTURE
1   ****   1
@<TRIPOS>MOLECULE
1cx2
37  39  1  0  0
SMALL
FORMAL_CHARGES
@<TRIPOS>ATOM
    1 C1         0.7550    -0.8790     0.0005 C.ar       1 ****  0
    2 C2         1.1440     0.4550     0.0015 C.ar       1 ****  0
    3 C3        -0.6256    -0.8136     0.0005 C.ar       1 ****  0
    4 C4        -1.5524    -2.0094    -0.0003 C.3        1 ****  0
    5 C5        -0.1557     2.6674     0.0024 C.ar       1 ****  0
    6 C6        -1.4100     3.2640    -0.0019 C.ar       1 ****  0
    7 C7        -1.5336     4.6613    -0.0060 C.ar       1 ****  0
    8 C8        -0.3934     5.4643    -0.0020 C.ar       1 ****  0
    9 C9         0.8509     4.8768     0.0054 C.ar       1 ****  0
   10 C10        0.9432     3.5077     0.0066 C.ar       1 ****  0
   11 C11        2.6743     0.8115     0.0011 C.ar       1 ****  0
   12 C12        3.6191    -0.2079     0.0002 C.ar       1 ****  0
   13 C13        4.9859     0.0835    -0.0001 C.ar       1 ****  0
   14 C14        5.4322     1.4016     0.0006 C.ar       1 ****  0
   15 C15        4.5069     2.4263     0.0014 C.ar       1 ****  0
   16 C16        3.1615     2.1121     0.0016 C.ar       1 ****  0
   17 N1         0.0220     1.2060     0.0022 N.ar       1 ****  0
   18 N2        -1.0127     0.4549     0.0013 N.ar       1 ****  0
   19 N3         0.6044     7.7194    -1.3112 N.am       1 ****  0
   20 O1        -1.8116     7.7669    -0.1894 O.2        1 ****  0
   21 O2         0.1978     7.7193     1.2758 O.2        1 ****  0
   22 Br1        7.2838     1.8313     0.0004 Br         1 ****  0
   23 F1        -0.8137    -3.1731     0.0867 F          1 ****  0
   24 F2        -2.4123    -1.9291     1.0764 F          1 ****  0
   25 F3        -2.2906    -2.0213    -1.1666 F          1 ****  0
   26 S1        -0.4086     7.2205    -0.0230 S.O2       1 ****  0
   27 H1         1.3766    -1.7499    -0.0001 H          1 ****  0
   28 H2        -2.2886     2.6532    -0.0020 H          1 ****  0
   29 H3        -2.5042     5.1118    -0.0123 H          1 ****  0
   30 H4         1.7348     5.4797     0.0101 H          1 ****  0
   31 H5         1.9179     3.0662     0.0112 H          1 ****  0
   32 H6         3.2961    -1.2280    -0.0004 H          1 ****  0
   33 H7         5.6972    -0.7158    -0.0009 H          1 ****  0
   34 H8         4.8267     3.4474     0.0020 H          1 ****  0
   35 H9         2.4552     2.9159     0.0021 H          1 ****  0
   36 H10        1.3980     7.1644    -1.5643 H          1 ****  0
   37 H11        0.4116     8.5582    -1.8031 H          1 ****  0
@<TRIPOS>BOND
    1     1     2 ar
    2     1     3 ar
    3     1    27 1
    4     2    11 1
    5     2    17 ar
    6     3     4 1
    7     3    18 ar
    8     4    23 1
    9     4    24 1
   10     4    25 1
   11     5     6 ar
   12     5    10 ar
   13     5    17 1
   14     6     7 ar
   15     6    28 1
   16     7     8 ar
   17     7    29 1
   18     8     9 ar
   19     8    26 1
   20     9    10 ar
   21     9    30 1
   22    10    31 1
   23    11    12 ar
   24    11    16 ar
   25    12    13 ar
   26    12    32 1
   27    13    14 ar
   28    13    33 1
   29    14    15 ar
   30    14    22 1
   31    15    16 ar
   32    15    34 1
   33    16    35 1
   34    17    18 ar
   35    19    26 am
   36    19    36 1
   37    19    37 1
   38    20    26 2
   39    21    26 2
@<TRIPOS>SUBSTRUCTURE
1   ****   1
@<TRIPOS>MOLECULE
1d0l
62  63  1  0  0
SMALL
FORMAL_CHARGES
@<TRIPOS>ATOM
    1 C1         1.1935    -0.7364     0.2508 C.3        1 ****  0
    2 C2         1.2407     0.7162    -0.2567 C.3        1 ****  0
    3 C3         0.0052     1.4529     0.2579 C.3        1 ****  0
    4 C4        -1.2321     0.7149    -0.2503 C.3        1 ****  0
    5 C5        -1.1797    -0.7365     0.2590 C.3        1 ****  0
    6 O1         0.0053    -1.3892    -0.2349 O.3        1 ****  0
    7 O2         2.3833    -1.4597    -0.2508 O.3        1 ****  0
    8 N1         2.4506     1.3769     0.2509 N.am       1 ****  0
    9 C6         2.8046     1.5644     1.6321 C.2        1 ****  0
   10 O3         3.8648     2.1442     1.8909 O.2        1 ****  0
   11 C7         1.9457     1.0884     2.7874 C.3        1 ****  0
   12 O4         0.0032     2.7991    -0.2237 O.3        1 ****  0
   13 O5        -2.4277     1.3678     0.2552 O.3        1 ****  0
   14 S1        -2.5654     1.3879     1.9762 S.O2       1 ****  0
   15 O6        -3.8292     2.1387     2.3458 O.2        1 ****  0
   16 O7        -1.2653     2.1646     2.6760 O.2        1 ****  -1
   17 O8        -2.6679    -0.0224     2.5296 O.2        1 ****  0
   18 C8        -2.4239    -1.4941    -0.2383 C.3        1 ****  0
   19 O9        -2.4416    -1.4924    -1.6678 O.3        1 ****  0
   20 C9         2.7047    -0.5496    -2.6516 C.3        1 ****  0
   21 C10        2.5014    -1.7092    -1.7080 C.3        1 ****  0
   22 C11        1.3820    -2.4162    -2.4002 C.3        1 ****  0
   23 C12        2.0335    -2.4940    -3.7927 C.3        1 ****  0
   24 N2         2.7122    -1.1744    -4.0018 N.3        1 ****  0
   25 C13        3.9728     0.2677    -2.3554 C.3        1 ****  0
   26 O10        5.1190    -0.5808    -2.4550 O.3        1 ****  0
   27 C14        1.0497    -2.8286    -4.8745 C.2        1 ****  0
   28 O11        1.2034    -3.8451    -5.5585 O.2        1 ****  0
   29 N3        -0.0348    -1.9860    -5.1128 N.am       1 ****  0
   30 C15       -0.9481    -2.2953    -6.1702 C.3        1 ****  0
   31 C16       -2.0761    -1.2519    -6.2085 C.3        1 ****  0
   32 S2        -3.1904    -1.6538    -7.5737 S.O2       1 ****  0
   33 O12       -4.3183    -0.6406    -7.6284 O.co2      1 ****  0
   34 O13       -2.4163    -1.6221    -8.8775 O.co2      1 ****  0
   35 O14       -3.8209    -3.1786    -7.3394 O.co2      1 ****  -1
   36 H1         1.1831    -0.7380     1.3508 H          1 ****  0
   37 H2         1.2579     0.7289    -1.3565 H          1 ****  0
   38 H3         0.0080     1.4788     1.3576 H          1 ****  0
   39 H4        -1.2551     0.7264    -1.3500 H          1 ****  0
   40 H5        -1.1581    -0.7339     1.3588 H          1 ****  0
   41 H6         3.1101     1.7416    -0.4513 H          1 ****  0
   42 H7         1.8160     0.0151     2.5840 H          1 ****  0
   43 H8         0.9705     1.5579     2.5912 H          1 ****  0
   44 H9         2.3407     1.3001     3.7919 H          1 ****  0
   45 H10       -0.0052     2.7925    -1.2137 H          1 ****  0
   46 H11       -2.3920    -2.5313     0.1265 H          1 ****  0
   47 H12       -3.3310    -0.9998     0.1397 H          1 ****  0
   48 H13       -1.6264    -1.9379    -2.0098 H          1 ****  0
   49 H14        1.9088     0.2027    -2.5492 H          1 ****  0
   50 H15        3.4088    -2.3152    -1.5690 H          1 ****  0
   51 H16        1.2353    -3.4232    -1.9827 H          1 ****  0
   52 H17        0.4781    -1.7899    -2.4285 H          1 ****  0
   53 H18        2.7615    -3.3171    -3.8436 H          1 ****  0
   54 H19        3.6803    -1.3205    -4.3217 H          1 ****  0
   55 H20        4.0595     1.0875    -3.0837 H          1 ****  0
   56 H21        3.9130     0.6843    -1.3391 H          1 ****  0
   57 H22        5.1752    -0.9559    -3.3695 H          1 ****  0
   58 H23       -0.1777    -1.1473    -4.5322 H          1 ****  0
   59 H24       -1.3794    -3.2931    -6.0020 H          1 ****  0
   60 H25       -0.4115    -2.2884    -7.1305 H          1 ****  0
   61 H26       -1.6491    -0.2505    -6.3660 H          1 ****  0
   62 H27       -2.6335    -1.2757    -5.2604 H          1 ****  0
@<TRIPOS>BOND
    1     1     2 1
    2     1     6 1
    3     1     7 1
    4     1    36 1
    5     2     3 1
    6     2     8 1
    7     2    37 1
    8     3     4 1
    9     3    12 1
   10     3    38 1
   11     4     5 1
   12     4    13 1
   13     4    39 1
   14     5     6 1
   15     5    18 1
   16     5    40 1
   17     8     9 am
   18     8    41 1
   19     9    10 2
   20     9    11 1
   21    11    42 1
   22    11    43 1
   23    11    44 1
   24    12    45 1
   25    13    14 1
   26    14    15 2
   27    14    16 1
   28    14    17 2
   29    18    19 1
   30    18    46 1
   31    18    47 1
   32    19    48 1
   33    20    21 1
   34    20    24 1
   35    20    25 1
   36    20    49 1
   37    21     7 1
   38    21    22 1
   39    21    50 1
   40    22    23 1
   41    22    51 1
   42    22    52 1
   43    23    24 1
   44    23    27 1
   45    23    53 1
   46    24    54 1
   47    25    26 1
   48    25    55 1
   49    25    56 1
   50    26    57 1
   51    27    28 2
   52    27    29 am
   53    29    30 1
   54    29    58 1
   55    30    31 1
   56    30    59 1
   57    30    60 1
   58    31    32 1
   59    31    61 1
   60    31    62 1
   61    32    33 ar
   62    32    34 ar
   63    32    35 ar
@<TRIPOS>SUBSTRUCTURE
1   ****   1
@<TRIPOS>MOLECULE
1d3h
28  28  1  0  0
SMALL
FORMAL_CHARGES
@<TRIPOS>ATOM
    1 C1         1.2038    -0.7034    -0.0001 C.ar       1 ****  0
    2 C2         1.2040     0.6862    -0.0000 C.ar       1 ****  0
    3 C3         0.0002     1.3808     0.0000 C.ar       1 ****  0
    4 C4        -1.2039     0.6866    -0.0000 C.ar       1 ****  0
    5 C5        -1.2040    -0.7032    -0.0001 C.ar       1 ****  0
    6 C6        -0.0002    -1.3977    -0.0002 C.ar       1 ****  0
    7 C7         0.0012     2.8797    -0.0007 C.3        1 ****  0
    8 F1         1.2966     3.3496    -0.0862 F          1 ****  0
    9 F2        -0.7299     3.3377    -1.0775 F          1 ****  0
   10 F3        -0.5786     3.3330     1.1656 F          1 ****  0
   11 N1         0.0020    -2.8231    -0.0003 N.am       1 ****  0
   12 C8         1.1676    -3.6613    -0.0001 C.2        1 ****  0
   13 C9         1.0694    -5.1735     0.0058 C.2        1 ****  0
   14 C10        2.2912    -5.9330     0.0010 C.1        1 ****  0
   15 C11       -0.0909    -5.8559     0.0011 C.2        1 ****  0
   16 O1        -1.2868    -5.1429    -0.0027 O.3        1 ****  0
   17 C12       -0.1652    -7.3593    -0.0028 C.3        1 ****  0
   18 O2         2.2973    -3.1589    -0.0003 O.2        1 ****  0
   19 N2         3.2714    -6.5388    -0.0007 N.1        1 ****  0
   20 H1         2.1562    -1.2537    -0.0002 H          1 ****  0
   21 H2         2.1566     1.2362    -0.0000 H          1 ****  0
   22 H3        -2.1563     1.2369    -0.0000 H          1 ****  0
   23 H4        -2.1566    -1.2533    -0.0002 H          1 ****  0
   24 H5        -0.9142    -3.2937    -0.0005 H          1 ****  0
   25 H6        -1.2452    -4.5581    -0.8004 H          1 ****  0
   26 H7         0.4223    -7.6528     0.8796 H          1 ****  0
   27 H8         0.4268    -7.6484    -0.8837 H          1 ****  0
   28 H9        -1.1830    -7.7765    -0.0065 H          1 ****  0
@<TRIPOS>BOND
    1     1     2 ar
    2     1     6 ar
    3     1    20 1
    4     2     3 ar
    5     2    21 1
    6     3     4 ar
    7     3     7 1
    8     4     5 ar
    9     4    22 1
   10     5     6 ar
   11     5    23 1
   12     6    11 1
   13     7     8 1
   14     7     9 1
   15     7    10 1
   16    11    12 am
   17    11    24 1
   18    12    13 1
   19    12    18 2
   20    13    14 1
   21    13    15 2
   22    14    19 3
   23    15    16 1
   24    15    17 1
   25    16    25 1
   26    17    26 1
   27    17    27 1
   28    17    28 1
@<TRIPOS>SUBSTRUCTURE
1   ****   1
@<TRIPOS>MOLECULE
1d4p
52  55  1  0  0
SMALL
FORMAL_CHARGES
@<TRIPOS>ATOM
    1 C1         1.2013    -0.7021    -0.0263 C.ar       1 ****  0
    2 C2         1.2053     0.6902     0.0147 C.ar       1 ****  0
    3 C3        -0.0235     1.3222     0.0171 C.ar       1 ****  0
    4 C4        -1.2048     0.6294    -0.0297 C.ar       1 ****  0
    5 C5        -1.2368    -0.7533    -0.0829 C.ar       1 ****  0
    6 C6        -0.0060    -1.4088    -0.0740 C.ar       1 ****  0
    7 C7        -0.3067     2.6726     0.1068 C.ar       1 ****  0
    8 C8        -1.7030     2.7291     0.1129 C.ar       1 ****  0
    9 N1        -2.2030     1.4973     0.0109 N.ar       1 ****  0
   10 C9         2.4793    -1.4348    -0.0130 C.2        1 ****  0
   11 N2         3.5901    -0.8111    -0.0018 N.2        1 ****  1
   12 N3         2.4858    -2.8660    -0.0093 N.3        1 ****  0
   13 C10       -2.5589     3.9440     0.2400 C.2        1 ****  0
   14 O1        -3.7795     3.8042     0.1078 O.2        1 ****  0
   15 N4        -2.0675     5.2540     0.5315 N.am       1 ****  0
   16 C11       -0.6191     5.5365     0.5966 C.3        1 ****  0
   17 C12       -0.2734     6.7774     1.3922 C.3        1 ****  0
   18 C13       -1.1600     7.9643     1.0052 C.3        1 ****  0
   19 C14       -2.6045     7.5587     1.3443 C.3        1 ****  0
   20 C15       -3.0617     6.3323     0.5591 C.3        1 ****  0
   21 C16       -0.9221     8.5860    -0.4752 C.3        1 ****  0
   22 C17       -1.1505     7.8661    -1.8535 C.ar       1 ****  0
   23 C18       -1.5855     6.5557    -2.0102 C.ar       1 ****  0
   24 C19       -1.7661     5.9890    -3.2646 C.ar       1 ****  0
   25 C20       -1.5094     6.7416    -4.4008 C.ar       1 ****  0
   26 C21       -1.0735     8.0530    -4.2654 C.ar       1 ****  0
   27 C22       -0.8962     8.6071    -3.0023 C.ar       1 ****  0
   28 H1         2.1193     1.2457     0.0431 H          1 ****  0
   29 H2        -2.1600    -1.2924    -0.1286 H          1 ****  0
   30 H3         0.0160    -2.4781    -0.1043 H          1 ****  0
   31 H4         0.3847     3.4875     0.1594 H          1 ****  0
   32 H5        -3.1695     1.2671     0.0031 H          1 ****  0
   33 H6         4.4509    -1.3059     0.0088 H          1 ****  0
   34 H7         3.5950     0.1820    -0.0030 H          1 ****  0
   35 H8         1.6022    -3.3916    -0.0130 H          1 ****  0
   36 H9         3.3813    -3.3707     0.0038 H          1 ****  0
   37 H10       -0.1100     4.6788     1.0376 H          1 ****  0
   38 H11       -0.2332     5.6455    -0.4144 H          1 ****  0
   39 H12        0.7600     7.0352     1.2197 H          1 ****  0
   40 H13       -0.3958     6.5704     2.4469 H          1 ****  0
   41 H14       -0.8960     8.7779     1.6961 H          1 ****  0
   42 H15       -3.2672     8.3856     1.1278 H          1 ****  0
   43 H16       -2.6761     7.3485     2.4057 H          1 ****  0
   44 H17       -3.9820     5.9552     0.9951 H          1 ****  0
   45 H18       -3.2911     6.6296    -0.4629 H          1 ****  0
   46 H19       -1.5008     9.5889    -0.5218 H          1 ****  0
   47 H20        0.1510     9.0155    -0.4973 H          1 ****  0
   48 H21       -1.7870     5.9670    -1.1397 H          1 ****  0
   49 H22       -2.1016     4.9769    -3.3542 H          1 ****  0
   50 H23       -1.6458     6.3156    -5.3728 H          1 ****  0
   51 H24       -0.8731     8.6401    -5.1372 H          1 ****  0
   52 H25       -0.5592     9.6187    -2.9132 H          1 ****  0
@<TRIPOS>BOND
    1     1     2 ar
    2     1     6 ar
    3     1    10 1
    4     2     3 ar
    5     2    28 1
    6     3     4 ar
    7     3     7 ar
    8     4     5 ar
    9     4     9 ar
   10     5     6 ar
   11     5    29 1
   12     6    30 1
   13     7     8 ar
   14     7    31 1
   15     8     9 ar
   16     8    13 1
   17     9    32 1
   18    10    11 2
   19    10    12 1
   20    11    33 1
   21    11    34 1
   22    12    35 1
   23    12    36 1
   24    13    14 2
   25    13    15 am
   26    15    16 1
   27    15    20 1
   28    16    17 1
   29    16    37 1
   30    16    38 1
   31    17    18 1
   32    17    39 1
   33    17    40 1
   34    18    19 1
   35    18    21 1
   36    18    41 1
   37    19    20 1
   38    19    42 1
   39    19    43 1
   40    20    44 1
   41    20    45 1
   42    21    22 1
   43    21    46 1
   44    21    47 1
   45    22    23 ar
   46    22    27 ar
   47    23    24 ar
   48    23    48 1
   49    24    25 ar
   50    24    49 1
   51    25    26 ar
   52    25    50 1
   53    26    27 ar
   54    26    51 1
   55    27    52 1
@<TRIPOS>SUBSTRUCTURE
1   ****   1
@<TRIPOS>MOLECULE
1dbb
53  56  1  0  0
SMALL
FORMAL_CHARGES
@<TRIPOS>ATOM
    1 C1         1.1761    -0.9055     0.0955 C.3        1 ****  0
    2 C2        -0.1525    -1.6402     0.0179 C.3        1 ****  0
    3 C3        -1.2111    -0.7297     0.5522 C.2        1 ****  0
    4 C4        -1.1131     0.7132     0.3172 C.2        1 ****  0
    5 C5         3.4343    -1.2053    -1.5196 C.2        1 ****  0
    6 C6        -0.0580     2.6572    -0.6946 C.3        1 ****  0
    7 C7        -0.4321     2.5181    -2.1979 C.3        1 ****  0
    8 C8         0.6363     1.6417    -2.9484 C.3        1 ****  0
    9 C9         1.7889     0.8443    -2.2132 C.3        1 ****  0
   10 C10        2.2818    -0.3850    -1.0903 C.3        1 ****  0
   11 C11        1.8786    -0.5895    -3.0078 C.3        1 ****  0
   12 C12        2.3297     4.2900    -5.2994 C.3        1 ****  0
   13 C13        2.6174     2.9197    -4.6263 C.3        1 ****  0
   14 C14        1.9509     2.4295    -3.1383 C.3        1 ****  0
   15 C15        1.6485     3.5873    -4.1301 C.3        1 ****  0
   16 C16        1.8363     2.9412    -5.5503 C.3        1 ****  0
   17 C17        3.0121     2.0839    -5.3206 C.3        1 ****  0
   18 C18        4.2217     2.3087    -4.2014 C.3        1 ****  0
   19 C19        2.4261     1.1833    -0.2958 C.3        1 ****  0
   20 C20        2.9525     0.8626    -6.3379 C.2        1 ****  0
   21 C21        4.3430     1.3666    -6.5930 C.3        1 ****  0
   22 O1        -2.2542    -1.2062     1.0129 O.2        1 ****  0
   23 O2         2.4880    -0.0492    -7.0301 O.2        1 ****  0
   24 H1         1.9638    -1.5383    -0.3393 H          1 ****  0
   25 H2         1.4227    -0.7176     1.1509 H          1 ****  0
   26 H3        -0.3756    -1.8932    -1.0291 H          1 ****  0
   27 H4        -0.1079    -2.5542     0.6284 H          1 ****  0
   28 H5        -1.9547     1.3631     0.5987 H          1 ****  0
   29 H6        -0.8389     3.2179    -0.1600 H          1 ****  0
   30 H7         0.9346     3.1201    -0.5926 H          1 ****  0
   31 H8        -1.4198     2.0419    -2.2853 H          1 ****  0
   32 H9        -0.4723     3.5162    -2.6585 H          1 ****  0
   33 H10        0.2576     1.4040    -3.9535 H          1 ****  0
   34 H11        2.7240     1.4236    -2.2159 H          1 ****  0
   35 H12        2.1077    -1.5018    -2.4374 H          1 ****  0
   36 H13        1.4313    -0.8869    -3.9677 H          1 ****  0
   37 H14        3.8356    -0.4212    -3.9407 H          1 ****  0
   38 H15        3.7196     0.3460    -2.3289 H          1 ****  0
   39 H16        2.3458     2.7460    -2.1616 H          1 ****  0
   40 H17        2.3702     4.4055    -3.9896 H          1 ****  0
   41 H18        0.6109     3.9307    -4.0060 H          1 ****  0
   42 H19        0.9116     3.0416    -6.1375 H          1 ****  0
   43 H20        2.7014     3.3900    -6.0604 H          1 ****  0
   44 H21        3.9117     2.7122    -5.3980 H          1 ****  0
   45 H22        4.8679     1.7064    -4.8570 H          1 ****  0
   46 H23        4.7313     2.4719    -3.2404 H          1 ****  0
   47 H24        4.0105     3.2774    -4.6779 H          1 ****  0
   48 H25        3.3115     0.6161    -0.6190 H          1 ****  0
   49 H26        2.4759     1.3793     0.7854 H          1 ****  0
   50 H27        2.4236     2.1492    -0.8222 H          1 ****  0
   51 H28        4.8579     1.2559    -5.6272 H          1 ****  0
   52 H29        4.2181     2.4462    -6.7629 H          1 ****  0
   53 H30        4.8692     0.8629    -7.4173 H          1 ****  0
@<TRIPOS>BOND
    1     1     2 1
    2     1    10 1
    3     1    24 1
    4     1    25 1
    5     2     3 1
    6     2    26 1
    7     2    27 1
    8     3     4 1
    9     3    22 2
   10     4     5 2
   11     4    28 1
   12     5     6 1
   13     5    10 1
   14     6     7 1
   15     6    29 1
   16     6    30 1
   17     7    31 1
   18     7    32 1
   19     8     7 1
   20     8     9 1
   21     8    14 1
   22     8    33 1
   23     9    10 1
   24     9    11 1
   25     9    34 1
   26    10    19 1
   27    11    12 1
   28    11    35 1
   29    11    36 1
   30    12    13 1
   31    12    37 1
   32    12    38 1
   33    13    14 1
   34    13    17 1
   35    13    18 1
   36    14    15 1
   37    14    39 1
   38    15    16 1
   39    15    40 1
   40    15    41 1
   41    16    17 1
   42    16    42 1
   43    16    43 1
   44    17    20 1
   45    17    44 1
   46    18    45 1
   47    18    46 1
   48    18    47 1
   49    19    48 1
   50    19    49 1
   51    19    50 1
   52    20    21 1
   53    20    23 2
   54    21    51 1
   55    21    52 1
   56    21    53 1
@<TRIPOS>SUBSTRUCTURE
1   ****   1
@<TRIPOS>MOLECULE
1dbj
51  54  1  0  0
SMALL
FORMAL_CHARGES
@<TRIPOS>ATOM
    1 C1        -0.0436     3.1577    -1.9519 C.3        1 ****  0
    2 C2         0.6192    -1.7122     0.4364 C.3        1 ****  0
    3 C3        -0.7800    -1.3855     0.9879 C.3        1 ****  0
    4 O1        -0.6670    -0.9281     2.3379 O.3        1 ****  0
    5 C4        -1.4062    -0.2956     0.1205 C.3        1 ****  0
    6 C5        -0.5040     0.6022    -0.9068 C.3        1 ****  0
    7 C6        -1.0894     1.9408    -0.9159 C.3        1 ****  0
    8 C7        -1.1731     1.2009    -2.3125 C.3        1 ****  0
    9 C8        -0.0517     0.1069    -2.5046 C.3        1 ****  0
   10 C9         1.1968     0.5880    -1.8268 C.3        1 ****  0
   11 C10        0.4728     1.9533    -1.1084 C.3        1 ****  0
   12 C11        2.3983    -0.3450    -2.0877 C.3        1 ****  0
   13 C12        2.6083    -0.5323    -3.5940 C.3        1 ****  0
   14 C13        1.8485     0.2090    -4.8075 C.3        1 ****  0
   15 C14        0.1292    -0.1219    -4.0149 C.3        1 ****  0
   16 C15       -1.0539    -1.0161    -4.4411 C.3        1 ****  0
   17 C16       -0.7188    -2.3570    -3.6959 C.3        1 ****  0
   18 C17        2.3815     1.4719    -5.3556 C.2        1 ****  0
   19 O2         1.4937    -3.2096    -3.2412 O.2        1 ****  0
   20 C18        1.5267    -1.2227    -5.7757 C.3        1 ****  0
   21 C19        1.8355     1.9785     0.1186 C.3        1 ****  0
   22 H1         2.5293    -0.7024     0.2609 H          1 ****  0
   23 H2         1.5418    -0.1622     1.6384 H          1 ****  0
   24 H3         1.0574    -2.5414     1.0113 H          1 ****  0
   25 H4         0.5413    -1.9911    -0.6248 H          1 ****  0
   26 H5        -1.4132    -2.2848     0.9684 H          1 ****  0
   27 H6        -0.1040    -0.1143     2.3651 H          1 ****  0
   28 H7        -2.4044    -0.0480     0.5106 H          1 ****  0
   29 H8        -1.5083    -0.6655    -0.9104 H          1 ****  0
   30 H9        -0.4906     0.2118    -1.9351 H          1 ****  0
   31 H10       -2.0969     2.2574    -0.6081 H          1 ****  0
   32 H11       -0.4385     2.8228    -1.0072 H          1 ****  0
   33 H12       -2.1587     0.7211    -2.4042 H          1 ****  0
   34 H13       -1.0865     1.9450    -3.1180 H          1 ****  0
   35 H14       -0.3189    -0.8581    -2.0492 H          1 ****  0
   36 H15        1.4180     1.5730    -2.2637 H          1 ****  0
   37 H16        3.3044     0.0950    -1.6457 H          1 ****  0
   38 H17        2.2094    -1.3235    -1.6223 H          1 ****  0
   39 H18        3.4207    -1.2545    -3.7625 H          1 ****  0
   40 H19        2.8864     0.4315    -4.0456 H          1 ****  0
   41 H20        0.2300     0.8483    -4.5235 H          1 ****  0
   42 H21       -2.0026    -0.6002    -4.0713 H          1 ****  0
   43 H22       -1.0461    -1.1721    -5.5300 H          1 ****  0
   44 H23       -1.0882    -3.2189    -4.2709 H          1 ****  0
   45 H24       -1.0957    -2.3260    -2.6630 H          1 ****  0
   46 H25        2.3433    -1.9390    -5.9492 H          1 ****  0
   47 H26        1.7978    -0.2505    -6.2131 H          1 ****  0
   48 H27        0.6026    -1.5943    -6.2427 H          1 ****  0
   49 H28        2.8964     1.8017    -0.1122 H          1 ****  0
   50 H29        1.7181     2.2073     1.1881 H          1 ****  0
   51 H30        1.4861     2.8415    -0.4672 H          1 ****  0
@<TRIPOS>BOND
    1     1     2 1
    2     1    11 1
    3     1    22 1
    4     1    23 1
    5     2     3 1
    6     2    24 1
    7     2    25 1
    8     3     4 1
    9     3     5 1
   10     3    26 1
   11     4    27 1
   12     5    28 1
   13     5    29 1
   14     6     5 1
   15     6     7 1
   16     6    11 1
   17     6    30 1
   18     7     8 1
   19     7    31 1
   20     7    32 1
   21     8    33 1
   22     8    34 1
   23     9     8 1
   24     9    10 1
   25     9    15 1
   26     9    35 1
   27    10    11 1
   28    10    12 1
   29    10    36 1
   30    11    21 1
   31    12    13 1
   32    12    37 1
   33    12    38 1
   34    13    14 1
   35    13    39 1
   36    13    40 1
   37    14    15 1
   38    14    18 1
   39    14    20 1
   40    15    16 1
   41    15    41 1
   42    16    17 1
   43    16    42 1
   44    16    43 1
   45    17    18 1
   46    17    44 1
   47    17    45 1
   48    18    19 2
   49    20    46 1
   50    20    47 1
   51    20    48 1
   52    21    49 1
   53    21    50 1
   54    21    51 1
@<TRIPOS>SUBSTRUCTURE
1   ****   1
@<TRIPOS>MOLECULE
1dd7
60  64  1  0  0
SMALL
FORMAL_CHARGES
@<TRIPOS>ATOM
    1 N1         8.6359     1.9737    -4.1314 N.ar       1 ****  0
    2 C1         9.6434     2.3656    -3.3835 C.ar       1 ****  0
    3 C2        10.1776     3.4627    -4.0460 C.ar       1 ****  0
    4 N2         9.4564     3.6563    -5.1460 N.ar       1 ****  0
    5 C3         8.5007     2.7332    -5.1988 C.ar       1 ****  0
    6 C4         7.8110     0.8863    -3.8308 C.ar       1 ****  0
    7 N3         8.0335     0.1830    -2.7250 N.ar       1 ****  0
    8 C5         7.2673    -0.8536    -2.4142 C.ar       1 ****  0
    9 C6         6.2218    -1.2069    -3.2539 C.ar       1 ****  0
   10 C7         6.0156    -0.4532    -4.4001 C.ar       1 ****  0
   11 N4         6.8170     0.5728    -4.6558 N.ar       1 ****  0
   12 N5         7.5166    -1.6056    -1.2178 N.pl3      1 ****  0
   13 C8         8.8787    -2.1554    -1.2686 C.3        1 ****  0
   14 C9         9.1356    -3.0327    -0.0322 C.3        1 ****  0
   15 N6         8.8400    -2.2964     1.1643 N.am       1 ****  0
   16 C10        7.6293    -1.5307     1.2525 C.3        1 ****  0
   17 C11        7.4160    -0.7239    -0.0434 C.3        1 ****  0
   18 C12        9.6532    -2.4417     2.2885 C.2        1 ****  0
   19 O1         9.3639    -1.8580     3.3397 O.2        1 ****  0
   20 O2        10.7902    -3.2438     2.2233 O.3        1 ****  0
   21 C13       11.4596    -3.2384     3.4872 C.3        1 ****  0
   22 C14        6.0427    -0.0034    -0.0307 C.3        1 ****  0
   23 C15        4.8908    -0.9846    -0.0323 C.2        1 ****  0
   24 O3         5.0938    -2.2020    -0.1063 O.2        1 ****  0
   25 N7         3.5792    -0.5109     0.0159 N.am       1 ****  0
   26 C16        2.4885    -1.4422    -0.0004 C.3        1 ****  0
   27 C17        1.1872    -0.7009    -0.0003 C.ar       1 ****  0
   28 C18        1.1858     0.6942     0.0001 C.ar       1 ****  0
   29 C19       -0.0121     1.4040     0.0002 C.ar       1 ****  0
   30 C20       -1.1966     0.6827     0.0001 C.ar       1 ****  0
   31 C21       -1.1966    -0.6870    -0.0003 C.ar       1 ****  0
   32 C22       -0.0121    -1.4088    -0.0004 C.ar       1 ****  0
   33 O4        -2.4539     1.2095     0.0002 O.3        1 ****  0
   34 C23       -3.3200    -0.0015    -0.0001 C.3        1 ****  0
   35 O5        -2.4542    -1.2132    -0.0004 O.3        1 ****  0
   36 H1         9.9882     1.9210    -2.4383 H          1 ****  0
   37 H2        11.0402     4.0623    -3.7201 H          1 ****  0
   38 H3         7.7402     2.6244    -5.9861 H          1 ****  0
   39 H4         5.5726    -2.0628    -3.0171 H          1 ****  0
   40 H5         5.1961    -0.7036    -5.0898 H          1 ****  0
   41 H6         8.9939    -2.7635    -2.1781 H          1 ****  0
   42 H7         9.6064    -1.3308    -1.2885 H          1 ****  0
   43 H8        10.1904    -3.3445    -0.0169 H          1 ****  0
   44 H9         8.4949    -3.9257    -0.0782 H          1 ****  0
   45 H10        7.6949    -0.8394     2.1056 H          1 ****  0
   46 H11        6.7778    -2.2106     1.4031 H          1 ****  0
   47 H12        8.2046     0.0406    -0.1027 H          1 ****  0
   48 H13       10.7814    -3.6267     4.2614 H          1 ****  0
   49 H14       11.7520    -2.2089     3.7413 H          1 ****  0
   50 H15       12.3569    -3.8724     3.4332 H          1 ****  0
   51 H16        5.9752     0.6289     0.8668 H          1 ****  0
   52 H17        5.9652     0.6433    -0.9171 H          1 ****  0
   53 H18        3.3954     0.5014     0.0631 H          1 ****  0
   54 H19        2.5421    -2.0857     0.8901 H          1 ****  0
   55 H20        2.5535    -2.0658    -0.9043 H          1 ****  0
   56 H21        2.1413     1.2393     0.0002 H          1 ****  0
   57 H22       -0.0188     2.5040     0.0005 H          1 ****  0
   58 H23       -0.0199    -2.5088    -0.0007 H          1 ****  0
   59 H24       -3.9534    -0.0024    -0.8995 H          1 ****  0
   60 H25       -3.9528    -0.0021     0.8997 H          1 ****  0
@<TRIPOS>BOND
    1     1     2 ar
    2     1     5 ar
    3     1     6 1
    4     2     3 ar
    5     2    36 1
    6     3     4 ar
    7     3    37 1
    8     4     5 ar
    9     5    38 1
   10     6     7 ar
   11     6    11 ar
   12     7     8 ar
   13     8     9 ar
   14     8    12 1
   15     9    10 ar
   16     9    39 1
   17    10    11 ar
   18    10    40 1
   19    12    13 1
   20    12    17 1
   21    13    14 1
   22    13    41 1
   23    13    42 1
   24    14    15 1
   25    14    43 1
   26    14    44 1
   27    15    16 1
   28    15    18 am
   29    16    17 1
   30    16    45 1
   31    16    46 1
   32    17    22 1
   33    17    47 1
   34    18    19 2
   35    18    20 1
   36    20    21 1
   37    21    48 1
   38    21    49 1
   39    21    50 1
   40    22    23 1
   41    22    51 1
   42    22    52 1
   43    23    24 2
   44    23    25 am
   45    25    26 1
   46    25    53 1
   47    26    27 1
   48    26    54 1
   49    26    55 1
   50    27    28 ar
   51    27    32 ar
   52    28    29 ar
   53    28    56 1
   54    29    30 ar
   55    29    57 1
   56    30    31 ar
   57    30    33 1
   58    31    32 ar
   59    31    35 1
   60    32    58 1
   61    33    34 1
   62    34    35 1
   63    34    59 1
   64    34    60 1
@<TRIPOS>SUBSTRUCTURE
1   ****   1
@<TRIPOS>MOLECULE
1dg5
39  40  1  0  0
SMALL
FORMAL_CHARGES
@<TRIPOS>ATOM
    1 C1         4.0247     0.6687    -0.0004 C.ar       1 ****  0
    2 N1         5.2418     1.1970    -0.0007 N.ar       1 ****  0
    3 C2         6.3234     0.4237    -0.0013 C.ar       1 ****  0
    4 N2         7.6175     1.0287    -0.0017 N.pl3      1 ****  0
    5 N3         6.2223    -0.9020    -0.0016 N.ar       1 ****  0
    6 C3         5.0345    -1.4924    -0.0012 C.ar       1 ****  0
    7 N4         4.9362    -2.9175    -0.0015 N.pl3      1 ****  0
    8 C4         3.8875    -0.7113    -0.0006 C.ar       1 ****  0
    9 C5         2.5222    -1.4523    -0.0000 C.3        1 ****  0
   10 C6         1.1818    -0.6829    -0.0001 C.ar       1 ****  0
   11 C7         1.1824     0.7068     0.0000 C.ar       1 ****  0
   12 C8        -0.0209     1.4018    -0.0000 C.ar       1 ****  0
   13 O1        -0.0209     2.8018     0.0001 O.3        1 ****  0
   14 C9         1.3179     3.3179     0.0002 C.3        1 ****  0
   15 C10       -1.2241     0.7068    -0.0001 C.ar       1 ****  0
   16 O2        -2.4355     1.4068    -0.0002 O.3        1 ****  0
   17 C11       -2.2091     2.8230    -0.0001 C.3        1 ****  0
   18 C12       -1.2247    -0.6829    -0.0002 C.ar       1 ****  0
   19 O3        -2.4371    -1.3813    -0.0004 O.3        1 ****  0
   20 C13       -2.2125    -2.7978    -0.0004 C.3        1 ****  0
   21 C14       -0.0215    -1.3782    -0.0002 C.ar       1 ****  0
   22 H1         3.1360     1.3170     0.0001 H          1 ****  0
   23 H2         7.7141     2.0542    -0.0015 H          1 ****  0
   24 H3         8.4589     0.4346    -0.0022 H          1 ****  0
   25 H4         5.7933    -3.4887    -0.0020 H          1 ****  0
   26 H5         4.0123    -3.3727    -0.0012 H          1 ****  0
   27 H6         2.5132    -2.1303    -0.8662 H          1 ****  0
   28 H7         2.5129    -2.1303     0.8661 H          1 ****  0
   29 H8         2.1351     1.2566     0.0001 H          1 ****  0
   30 H9         1.8400     2.9512    -0.8959 H          1 ****  0
   31 H10        1.8398     2.9511     0.8963 H          1 ****  0
   32 H11        1.3012     4.4178     0.0003 H          1 ****  0
   33 H12       -1.6305     3.0913    -0.8963 H          1 ****  0
   34 H13       -1.6306     3.0912     0.8963 H          1 ****  0
   35 H14       -3.1690     3.3602    -0.0001 H          1 ****  0
   36 H15       -1.6344    -3.0669     0.8958 H          1 ****  0
   37 H16       -1.6343    -3.0668    -0.8967 H          1 ****  0
   38 H17       -3.1731    -3.3338    -0.0006 H          1 ****  0
   39 H18       -0.0215    -2.4782    -0.0003 H          1 ****  0
@<TRIPOS>BOND
    1     1     2 ar
    2     1     8 ar
    3     1    22 1
    4     2     3 ar
    5     3     4 1
    6     3     5 ar
    7     4    23 1
    8     4    24 1
    9     5     6 ar
   10     6     7 1
   11     6     8 ar
   12     7    25 1
   13     7    26 1
   14     8     9 1
   15     9    10 1
   16     9    27 1
   17     9    28 1
   18    10    11 ar
   19    10    21 ar
   20    11    12 ar
   21    11    29 1
   22    12    13 1
   23    12    15 ar
   24    13    14 1
   25    14    30 1
   26    14    31 1
   27    14    32 1
   28    15    16 1
   29    15    18 ar
   30    16    17 1
   31    17    33 1
   32    17    34 1
   33    17    35 1
   34    18    19 1
   35    18    21 ar
   36    19    20 1
   37    20    36 1
   38    20    37 1
   39    20    38 1
   40    21    39 1
@<TRIPOS>SUBSTRUCTURE
1   ****   1
@<TRIPOS>MOLECULE
1dhf
49  51  1  0  0
SMALL
FORMAL_CHARGES
@<TRIPOS>ATOM
    1 N1         1.1918    -0.6201    -0.0001 N.2        1 ****  0
    2 C1         1.1892     0.6578    -0.0000 C.2        1 ****  0
    3 N2         2.4341     1.3581     0.0001 N.3        1 ****  0
    4 N3        -0.0151     1.3906     0.0000 N.am       1 ****  0
    5 C2        -1.2314     0.7243    -0.0001 C.2        1 ****  0
    6 O1        -2.2968     1.3518    -0.0001 O.2        1 ****  0
    7 C3        -1.2220    -0.7145    -0.0002 C.ar       1 ****  0
    8 N4        -2.3529    -1.4076    -0.0003 N.ar       1 ****  0
    9 C4        -2.3092    -2.7337    -0.0004 C.ar       1 ****  0
   10 C5        -1.0834    -3.3897    -0.0004 C.ar       1 ****  0
   11 N5         0.0448    -2.6915    -0.0003 N.ar       1 ****  0
   12 C6         0.0015    -1.3658    -0.0002 C.ar       1 ****  0
   13 C7        -3.5833    -3.5272    -0.0005 C.3        1 ****  0
   14 N6        -4.7426    -2.6164    -0.0006 N.pl3      1 ****  0
   15 C8        -8.3423    -4.8178    -0.0005 C.ar       1 ****  0
   16 C9        -7.1230    -5.4851    -0.0004 C.ar       1 ****  0
   17 C10       -5.9360    -4.7624    -0.0004 C.ar       1 ****  0
   18 C11       -5.9685    -3.3730    -0.0006 C.ar       1 ****  0
   19 C12       -7.1880    -2.7058    -0.0006 C.ar       1 ****  0
   20 C13       -8.3750    -3.4284    -0.0006 C.ar       1 ****  0
   21 C14       -9.5898    -5.5770    -0.0008 C.2        1 ****  0
   22 O2       -10.6713    -4.9789     0.0061 O.2        1 ****  0
   23 N7        -9.5678    -6.9755    -0.0090 N.am       1 ****  0
   24 C15      -10.8082    -7.6882     0.0788 C.3        1 ****  0
   25 C16      -10.5483    -9.2004    -0.0198 C.3        1 ****  0
   26 C17      -11.9078    -9.9241     0.0721 C.3        1 ****  0
   27 C18      -11.7173   -11.4107     0.0174 C.2        1 ****  0.0000
   28 O3       -12.7025   -12.1576     0.0281 O.co2      1 ****  -0.50
   29 O4       -10.4673   -11.9364    -0.0361 O.co2      1 ****  -0.50
   30 C19      -11.4287    -7.3998     1.4112 C.2        1 ****  0.0000
   31 O5       -10.8466    -7.7378     2.4480 O.co2      1 ****  -0.50
   32 O6       -12.6212    -6.7571     1.4795 O.co2      1 ****  -0.50
   33 H1         3.3250     0.8411     0.0000 H          1 ****  0
   34 H2         2.4396     2.3881     0.0001 H          1 ****  0
   35 H3         0.0084     2.4204     0.0001 H          1 ****  0
   36 H4        -1.0489    -4.4891    -0.0005 H          1 ****  0
   37 H5        -3.6183    -4.1626    -0.8978 H          1 ****  0
   38 H6        -3.6192    -4.1632     0.8963 H          1 ****  0
   39 H7        -4.6844    -1.5880    -0.0007 H          1 ****  0
   40 H8        -7.0977    -6.5848    -0.0003 H          1 ****  0
   41 H9        -4.9708    -5.2901    -0.0004 H          1 ****  0
   42 H10       -7.2134    -1.6061    -0.0007 H          1 ****  0
   43 H11       -9.3403    -2.9009    -0.0007 H          1 ****  0
   44 H12       -8.6750    -7.4848    -0.0770 H          1 ****  0
   45 H13      -11.4725    -7.3735    -0.7395 H          1 ****  0
   46 H14      -10.0706    -9.4321    -0.9832 H          1 ****  0
   47 H15       -9.9021    -9.5211     0.8106 H          1 ****  0
   48 H16      -12.4002    -9.6555     1.0184 H          1 ****  0
   49 H17      -12.5468    -9.6089    -0.7660 H          1 ****  0
@<TRIPOS>BOND
    1     1     2 2
    2     1    12 1
    3     2     3 1
    4     2     4 1
    5     3    33 1
    6     3    34 1
    7     4     5 am
    8     4    35 1
    9     5     6 2
   10     5     7 1
   11     7     8 ar
   12     7    12 ar
   13     8     9 ar
   14     9    10 ar
   15     9    13 1
   16    10    11 ar
   17    10    36 1
   18    11    12 ar
   19    13    14 1
   20    13    37 1
   21    13    38 1
   22    14    18 1
   23    14    39 1
   24    15    16 ar
   25    15    20 ar
   26    15    21 1
   27    16    17 ar
   28    16    40 1
   29    17    18 ar
   30    17    41 1
   31    18    19 ar
   32    19    20 ar
   33    19    42 1
   34    20    43 1
   35    21    22 2
   36    21    23 am
   37    23    44 1
   38    24    23 1
   39    24    25 1
   40    24    30 1
   41    24    45 1
   42    25    26 1
   43    25    46 1
   44    25    47 1
   45    26    27 1
   46    26    48 1
   47    26    49 1
   48    27    28 ar
   49    27    29 ar
   50    30    31 ar
   51    30    32 ar
@<TRIPOS>SUBSTRUCTURE
1   ****   1
@<TRIPOS>MOLECULE
1did
24  24  1  0  0
SMALL
FORMAL_CHARGES
@<TRIPOS>ATOM
    1 C1         0.8613    -1.5300     1.6774 C.3        1 ****  0
    2 O1         0.2004    -0.7208     2.6603 O.3        1 ****  0
    3 C2         0.6883    -1.0483     0.1868 C.3        1 ****  0
    4 C3        -0.7878    -0.9209    -0.3129 C.3        1 ****  0
    5 O2        -1.6151    -2.0446     0.0048 O.3        1 ****  0
    6 C4        -1.1914     0.3975     0.2964 C.3        1 ****  0
    7 O3        -2.4598     0.8731    -0.1684 O.3        1 ****  0
    8 C5        -0.0173     1.1846    -0.2797 C.3        1 ****  0
    9 C6         0.0710     2.6250     0.2260 C.3        1 ****  0
   10 O4         0.1720     2.6001     1.6550 O.3        1 ****  0
   11 N1         1.1680     0.3634     0.1200 N.3        1 ****  0
   12 H1         1.9273    -1.5709     1.9180 H          1 ****  0
   13 H2         0.4927    -2.5590     1.7651 H          1 ****  0
   14 H3        -0.7706    -0.9044     2.6497 H          1 ****  0
   15 H4         1.2515    -1.7418    -0.4539 H          1 ****  0
   16 H5        -0.7732    -0.7632    -1.3963 H          1 ****  0
   17 H6        -1.6624    -2.1663     0.9818 H          1 ****  0
   18 H7        -1.1714     0.3797     1.3681 H          1 ****  0
   19 H8        -3.1697     0.2608     0.1472 H          1 ****  0
   20 H9        -0.1081     1.1535    -1.3698 H          1 ****  0
   21 H10       -0.8059     3.1586    -0.0599 H          1 ****  0
   22 H11        0.9372     3.0959    -0.1854 H          1 ****  0
   23 H12        0.9661     2.0684     1.9228 H          1 ****  0
   24 H13        1.9688     0.5220    -0.5090 H          1 ****  0
@<TRIPOS>BOND
    1     1     2 1
    2     1    12 1
    3     1    13 1
    4     2    14 1
    5     3     1 1
    6     3     4 1
    7     3    11 1
    8     3    15 1
    9     4     5 1
   10     4     6 1
   11     4    16 1
   12     5    17 1
   13     6     7 1
   14     6     8 1
   15     6    18 1
   16     7    19 1
   17     8     9 1
   18     8    11 1
   19     8    20 1
   20     9    10 1
   21     9    21 1
   22     9    22 1
   23    10    23 1
   24    11    24 1
@<TRIPOS>SUBSTRUCTURE
1   ****   1
@<TRIPOS>MOLECULE
1dmp
76  80  1  0  0
SMALL
FORMAL_CHARGES
@<TRIPOS>ATOM
    1 C1         1.5804    -0.4460     0.0688 C.2        1 ****  0
    2 O1         2.7084    -0.8181     0.2095 O.2        1 ****  0
    3 N1         1.2964     0.8842     0.3890 N.am       1 ****  0
    4 C2         2.4366     1.7628     0.9244 C.3        1 ****  0
    5 C3         0.0945     1.5752    -0.1869 C.3        1 ****  0
    6 C4        -1.2224     1.0185    -0.8314 C.3        1 ****  0
    7 O2        -2.2910     1.8925    -0.2712 O.3        1 ****  0
    8 C5        -1.5641    -0.3990     0.8155 C.3        1 ****  0
    9 O3        -2.9122    -0.7077     0.2597 O.3        1 ****  0
   10 C6        -0.6501    -1.4803     0.1702 C.3        1 ****  0
   11 N2         0.7229    -1.3985    -0.4029 N.am       1 ****  0
   12 C7         1.3271    -2.6549    -1.0224 C.3        1 ****  0
   13 C8         3.6480     1.2330     1.8280 C.ar       1 ****  0
   14 C9         3.9290    -0.1048     2.0843 C.ar       1 ****  0
   15 C10        5.0450    -0.5169     2.7979 C.ar       1 ****  0
   16 C11        5.9075     0.4334     3.3081 C.ar       1 ****  0
   17 C12        5.6175     1.7812     3.1192 C.ar       1 ****  0
   18 N3         6.4666     2.7441     3.7126 N.pl3      1 ****  0
   19 C13        4.5095     2.1776     2.3832 C.ar       1 ****  0
   20 C14        0.1468     3.1168     0.1489 C.3        1 ****  0
   21 C15        0.0943     3.5407     1.6237 C.ar       1 ****  0
   22 C16       -0.0192     2.6208     2.6616 C.ar       1 ****  0
   23 C17       -0.0045     3.0459     3.9835 C.ar       1 ****  0
   24 C18        0.1404     4.3960     4.2757 C.ar       1 ****  0
   25 C19        0.2555     5.3192     3.2441 C.ar       1 ****  0
   26 C20        0.2274     4.8914     1.9228 C.ar       1 ****  0
   27 C21       -1.2916    -2.8839    -0.1465 C.3        1 ****  0
   28 C22       -1.5174    -3.2631    -1.6143 C.ar       1 ****  0
   29 C23       -1.2581    -2.3840    -2.6614 C.ar       1 ****  0
   30 C24       -1.4060    -2.7956    -3.9788 C.ar       1 ****  0
   31 C25       -1.7993    -4.0983    -4.2558 C.ar       1 ****  0
   32 C26       -2.0603    -4.9803    -3.2148 C.ar       1 ****  0
   33 C27       -1.9244    -4.5607    -1.8979 C.ar       1 ****  0
   34 C28        2.7084    -2.6698    -1.8182 C.ar       1 ****  0
   35 C29        3.6186    -1.6270    -1.8223 C.ar       1 ****  0
   36 C30        4.8724    -1.7347    -2.4258 C.ar       1 ****  0
   37 N4         5.8068    -0.6537    -2.2762 N.pl3      1 ****  0
   38 C31        5.2034    -2.8914    -3.0970 C.ar       1 ****  0
   39 C32        4.2807    -3.9358    -3.1536 C.ar       1 ****  0
   40 C33        3.0543    -3.8323    -2.5067 C.ar       1 ****  0
   41 H1         1.9580     2.6428     1.4721 H          1 ****  0
   42 H2         2.8891     2.3136     0.0290 H          1 ****  0
   43 H3         0.1350     1.4903    -1.2826 H          1 ****  0
   44 H4        -1.1628     1.0113    -1.9190 H          1 ****  0
   45 H5        -2.2589     1.8711    -1.2611 H          1 ****  0
   46 H6        -1.5064    -0.4196     1.9023 H          1 ****  0
   47 H7        -3.5771    -0.0366    -0.0307 H          1 ****  0
   48 H8        -0.5714    -1.4069     1.2655 H          1 ****  0
   49 H9         0.5365    -3.1181    -1.6934 H          1 ****  0
   50 H10        1.3908    -3.4423    -0.2025 H          1 ****  0
   51 H11        3.2547    -0.8489     1.7147 H          1 ****  0
   52 H12        5.2352    -1.5586     2.9513 H          1 ****  0
   53 H13        6.7867     0.1373     3.8413 H          1 ****  0
   54 H14        7.2778     2.4374     4.2670 H          1 ****  0
   55 H15        6.2529     3.7417     3.6163 H          1 ****  0
   56 H16        4.3145     3.2199     2.2406 H          1 ****  0
   57 H17        1.0655     3.5467    -0.3062 H          1 ****  0
   58 H18       -0.6794     3.6241    -0.3894 H          1 ****  0
   59 H19       -0.1186     1.5789     2.4396 H          1 ****  0
   60 H20       -0.1046     2.3341     4.7761 H          1 ****  0
   61 H21        0.1634     4.7245     5.2938 H          1 ****  0
   62 H22        0.3657     6.3599     3.4673 H          1 ****  0
   63 H23        0.3088     5.6060     1.1305 H          1 ****  0
   64 H24       -0.6669    -3.6726     0.3266 H          1 ****  0
   65 H25       -2.2616    -2.9574     0.3859 H          1 ****  0
   66 H26       -0.9424    -1.3838    -2.4496 H          1 ****  0
   67 H27       -1.2174    -2.1106    -4.7789 H          1 ****  0
   68 H28       -1.9012    -4.4225    -5.2704 H          1 ****  0
   69 H29       -2.3662    -5.9833    -3.4276 H          1 ****  0
   70 H30       -2.1341    -5.2399    -1.0982 H          1 ****  0
   71 H31        3.3518    -0.7066    -1.3463 H          1 ****  0
   72 H32        5.5483     0.1798    -1.7223 H          1 ****  0
   73 H33        6.7542    -0.7342    -2.6702 H          1 ****  0
   74 H34        6.1584    -2.9876    -3.5700 H          1 ****  0
   75 H35        4.5187    -4.8246    -3.6998 H          1 ****  0
   76 H36        2.3686    -4.6532    -2.5375 H          1 ****  0
@<TRIPOS>BOND
    1     1     2 2
    2     1     3 am
    3     1    11 am
    4     3     4 1
    5     3     5 1
    6     4    13 1
    7     4    41 1
    8     4    42 1
    9     5     6 1
   10     5    20 1
   11     5    43 1
   12     6     7 1
   13     6     8 1
   14     6    44 1
   15     7    45 1
   16     8     9 1
   17     8    10 1
   18     8    46 1
   19     9    47 1
   20    10    11 1
   21    10    27 1
   22    10    48 1
   23    11    12 1
   24    12    34 1
   25    12    49 1
   26    12    50 1
   27    13    14 ar
   28    13    19 ar
   29    14    15 ar
   30    14    51 1
   31    15    16 ar
   32    15    52 1
   33    16    17 ar
   34    16    53 1
   35    17    18 1
   36    17    19 ar
   37    18    54 1
   38    18    55 1
   39    19    56 1
   40    20    21 1
   41    20    57 1
   42    20    58 1
   43    21    22 ar
   44    21    26 ar
   45    22    23 ar
   46    22    59 1
   47    23    24 ar
   48    23    60 1
   49    24    25 ar
   50    24    61 1
   51    25    26 ar
   52    25    62 1
   53    26    63 1
   54    27    28 1
   55    27    64 1
   56    27    65 1
   57    28    29 ar
   58    28    33 ar
   59    29    30 ar
   60    29    66 1
   61    30    31 ar
   62    30    67 1
   63    31    32 ar
   64    31    68 1
   65    32    33 ar
   66    32    69 1
   67    33    70 1
   68    34    35 ar
   69    34    40 ar
   70    35    36 ar
   71    35    71 1
   72    36    37 1
   73    36    38 ar
   74    37    72 1
   75    37    73 1
   76    38    39 ar
   77    38    74 1
   78    39    40 ar
   79    39    75 1
   80    40    76 1
@<TRIPOS>SUBSTRUCTURE
1   ****   1
@<TRIPOS>MOLECULE
1dog
24  24  1  0  0
SMALL
FORMAL_CHARGES
@<TRIPOS>ATOM
    1 C1         1.2261    -0.7110     0.2469 C.3        1 ****  0
    2 C2         0.4489     0.2376    -0.7124 C.3        1 ****  0
    3 O1         1.5282     0.7657    -1.6579 O.3        1 ****  0
    4 C3        -0.0014     0.4119     0.5550 C.3        1 ****  0
    5 O2        -0.0081     1.4227     1.6465 O.3        1 ****  0
    6 C4        -0.4230     0.2421    -0.7119 C.3        1 ****  0
    7 O3        -1.4748     0.7830    -1.6810 O.3        1 ****  0
    8 C5        -1.2107    -0.7219     0.2371 C.3        1 ****  0
    9 N1         0.0108    -1.3844    -0.2979 N.3        1 ****  0
   10 C6        -2.4662    -1.4977    -0.2110 C.3        1 ****  0
   11 O4        -2.5399    -1.5349    -1.6378 O.3        1 ****  0
   12 H1         2.1041    -1.2429    -0.0785 H          1 ****  0
   13 H2         1.1900    -0.7272     1.3202 H          1 ****  0
   14 H3        -0.4039    -0.2701    -1.1844 H          1 ****  0
   15 H4         0.9016     0.2050    -2.1189 H          1 ****  0
   16 H5        -0.0017    -0.6348     0.8894 H          1 ****  0
   17 H6         0.7991     1.8794     1.9898 H          1 ****  0
   18 H7         0.4443    -0.2574    -1.1656 H          1 ****  0
   19 H8        -0.8276     0.2432    -2.1329 H          1 ****  0
   20 H9        -1.1567    -0.7302     1.3342 H          1 ****  0
   21 H10        0.0156    -2.3641     0.0144 H          1 ****  0
   22 H11       -3.3418    -1.0158     0.1774 H          1 ****  0
   23 H12       -2.4206    -2.5022     0.1696 H          1 ****  0
   24 H13       -1.7242    -1.9621    -2.0001 H          1 ****  0
@<TRIPOS>BOND
    1     1     2 1
    2     1     9 1
    3     1    12 1
    4     1    13 1
    5     2     3 1
    6     2     4 1
    7     2    14 1
    8     3    15 1
    9     4     5 1
   10     4     6 1
   11     4    16 1
   12     5    17 1
   13     6     7 1
   14     6     8 1
   15     6    18 1
   16     7    19 1
   17     8     9 1
   18     8    10 1
   19     8    20 1
   20     9    21 1
   21    10    11 1
   22    10    22 1
   23    10    23 1
   24    11    24 1
@<TRIPOS>SUBSTRUCTURE
1   ****   1
@<TRIPOS>MOLECULE
1dr1
28  29  1  0  0
SMALL
FORMAL_CHARGES
@<TRIPOS>ATOM
    1 N1         2.3935    -1.4289    -0.0004 N.3        1 ****  0
    2 C1         1.1646    -0.7010    -0.0002 C.2        1 ****  0
    3 N2         0.0592    -1.3421    -0.0004 N.2        1 ****  0
    4 N3         1.1971     0.7084    -0.0000 N.am       1 ****  0
    5 C2         0.0118     1.4286     0.0001 C.2        1 ****  0
    6 C3        -1.2296     0.7009    -0.0000 C.ar       1 ****  0
    7 C4        -1.1818    -0.6843    -0.0003 C.ar       1 ****  0
    8 N4        -2.3082    -1.3846    -0.0004 N.ar       1 ****  0
    9 C5        -3.4770    -0.7567    -0.0003 C.ar       1 ****  0
   10 C6        -3.5218     0.6328    -0.0000 C.ar       1 ****  0
   11 N5        -2.3953     1.3338     0.0001 N.ar       1 ****  0
   12 C7        -4.8423     0.6226    -0.8343 C.3        1 ****  0
   13 C8        -5.0824     2.1237    -1.3268 C.3        1 ****  0
   14 C9        -4.0322     3.2400    -1.5023 C.3        1 ****  0
   15 O1         0.0225     2.6650     0.0003 O.2        1 ****  0
   16 O2        -5.8892     0.3692     0.1396 O.3        1 ****  0
   17 O3        -6.3825     2.7173    -1.2988 O.3        1 ****  0
   18 H1         3.2956    -0.9317    -0.0003 H          1 ****  0
   19 H2         2.3760    -2.4587    -0.0005 H          1 ****  0
   20 H3         2.1005     1.2030     0.0001 H          1 ****  0
   21 H4        -4.4118    -1.3364    -0.0004 H          1 ****  0
   22 H5        -4.8314    -0.0988    -1.6647 H          1 ****  0
   23 H6        -4.9924     1.4186    -2.1662 H          1 ****  0
   24 H7        -3.0304     2.7858    -1.5119 H          1 ****  0
   25 H8        -4.1047     3.9319    -0.6502 H          1 ****  0
   26 H9        -4.2075     3.7829    -2.4428 H          1 ****  0
   27 H10       -5.7793    -0.1171     0.9949 H          1 ****  0
   28 H11       -6.4484     3.3417    -0.5334 H          1 ****  0
@<TRIPOS>BOND
    1     1     2 1
    2     1    18 1
    3     1    19 1
    4     2     3 2
    5     2     4 1
    6     3     7 1
    7     4     5 am
    8     4    20 1
    9     5     6 1
   10     5    15 2
   11     6     7 ar
   12     6    11 ar
   13     7     8 ar
   14     8     9 ar
   15     9    10 ar
   16     9    21 1
   17    10    11 ar
   18    10    12 1
   19    12    13 1
   20    12    16 1
   21    12    22 1
   22    13    14 1
   23    13    17 1
   24    13    23 1
   25    14    24 1
   26    14    25 1
   27    14    26 1
   28    16    27 1
   29    17    28 1
@<TRIPOS>SUBSTRUCTURE
1   ****   1
@<TRIPOS>MOLECULE
1dwb
18  18  1  0  0
SMALL
FORMAL_CHARGES
@<TRIPOS>ATOM
    1 C1         1.2084    -0.6974    -0.0001 C.ar       1 ****  0
    2 C2         1.2089     0.6915     0.0001 C.ar       1 ****  0
    3 C3         0.0048     1.3871     0.0001 C.ar       1 ****  0
    4 C4        -1.1983     0.6923    -0.0001 C.ar       1 ****  0
    5 C5        -1.1987    -0.6980    -0.0003 C.ar       1 ****  0
    6 C6         0.0043    -1.3930    -0.0003 C.ar       1 ****  0
    7 C7         2.4780    -1.4311    -0.0001 C.2        1 ****  0
    8 N1         3.5789    -0.7954     0.0001 N.2        1 ****  1
    9 N2         2.4801    -2.8279    -0.0003 N.3        1 ****  0
   10 H1         2.1617     1.2413     0.0003 H          1 ****  0
   11 H2         0.0048     2.4871     0.0003 H          1 ****  0
   12 H3        -2.1508     1.2424    -0.0001 H          1 ****  0
   13 H4        -2.1515    -1.2478    -0.0004 H          1 ****  0
   14 H5         0.0042    -2.4930    -0.0005 H          1 ****  0
   15 H6         4.4712    -1.3099     0.0001 H          1 ****  0
   16 H7         3.5785     0.2346     0.0003 H          1 ****  0
   17 H8         1.5882    -3.3430    -0.0004 H          1 ****  0
   18 H9         3.3724    -3.3425    -0.0002 H          1 ****  0
@<TRIPOS>BOND
    1     1     2 ar
    2     1     6 ar
    3     1     7 1
    4     2     3 ar
    5     2    10 1
    6     3     4 ar
    7     3    11 1
    8     4     5 ar
    9     4    12 1
   10     5     6 ar
   11     5    13 1
   12     6    14 1
   13     7     8 2
   14     7     9 1
   15     8    15 1
   16     8    16 1
   17     9    17 1
   18     9    18 1
@<TRIPOS>SUBSTRUCTURE
1   ****   1
@<TRIPOS>MOLECULE
1dwc
71  73  1  0  0
SMALL
FORMAL_CHARGES
@<TRIPOS>ATOM
    1 C1         1.1935    -0.6648    -0.0174 C.ar       1 ****  0
    2 C2         1.1833     0.7243     0.0125 C.ar       1 ****  0
    3 C3        -0.0251     1.4079     0.0214 C.ar       1 ****  0
    4 C4        -1.2197     0.6992     0.0111 C.ar       1 ****  0
    5 C5        -1.2113    -0.6900    -0.0147 C.ar       1 ****  0
    6 C6        -2.5154    -1.4216     0.0017 C.3        1 ****  0
    7 C7        -2.3223    -2.8058     0.6205 C.3        1 ****  0
    8 C8        -1.2380    -3.5171    -0.1800 C.3        1 ****  0
    9 N1         0.0722    -2.8319    -0.0692 N.pl3      1 ****  0
   10 C9         0.0021    -1.3779    -0.0399 C.ar       1 ****  0
   11 S1         2.7293    -1.5331    -0.0183 S.O2       1 ****  0
   12 N2         4.0206    -0.4462    -0.2997 N.am       1 ****  0
   13 C10        5.3724    -0.9360    -0.3469 C.3        1 ****  0
   14 C11        6.3373     0.2233    -0.4530 C.2        1 ****  0
   15 O1         5.8993     1.3596    -0.6648 O.2        1 ****  0
   16 C12        5.5232    -1.8733    -1.5649 C.3        1 ****  0
   17 C13        5.2183    -1.0999    -2.8585 C.3        1 ****  0
   18 C14        5.3596    -2.0601    -4.0494 C.3        1 ****  0
   19 N3         5.0904    -1.3673    -5.2735 N.3        1 ****  0
   20 C15        5.1571    -2.0601    -6.4824 C.2        1 ****  0
   21 N4         4.9288    -1.4564    -7.5768 N.2        1 ****  1
   22 N5         5.4767    -3.4195    -6.4874 N.3        1 ****  0
   23 C16       -1.9270    -2.7109     2.1060 C.3        1 ****  0
   24 O2         2.6908    -2.5970    -1.0992 O.2        1 ****  0
   25 O3         2.9263    -2.2046     1.3273 O.2        1 ****  0
   26 N6         7.7282     0.0402    -0.2760 N.am       1 ****  0
   27 C17        8.6061     1.1678    -0.4298 C.3        1 ****  0
   28 C18        9.7429     0.7873    -1.3971 C.3        1 ****  0
   29 C19       10.4424    -0.4825    -0.8814 C.3        1 ****  0
   30 C20        9.4099    -1.6248    -0.8552 C.3        1 ****  0
   31 C21        8.2619    -1.2423     0.1002 C.3        1 ****  0
   32 C22        9.1859     1.5322     0.9089 C.2        1 ****  0.0000
   33 O4         9.8551     0.7046     1.5374 O.co2      1 ****  -0.50
   34 O5         8.9791     2.7716     1.4245 O.co2      1 ****  -0.50
   35 C23       11.5929    -0.8561    -1.8345 C.3        1 ****  0
   36 H1         2.1315     1.2818     0.0291 H          1 ****  0
   37 H2        -0.0365     2.5078     0.0366 H          1 ****  0
   38 H3        -2.1772     1.2404     0.0235 H          1 ****  0
   39 H4        -3.2462    -0.8540     0.5964 H          1 ****  0
   40 H5        -2.8883    -1.5303    -1.0274 H          1 ****  0
   41 H6        -3.2673    -3.3676     0.5820 H          1 ****  0
   42 H7        -1.1362    -4.5488     0.1879 H          1 ****  0
   43 H8        -1.5355    -3.5543    -1.2384 H          1 ****  0
   44 H9         0.9637    -3.3451    -0.0169 H          1 ****  0
   45 H10        3.8304     0.5570    -0.4349 H          1 ****  0
   46 H11        5.5997    -1.4936     0.5736 H          1 ****  0
   47 H12        6.5524    -2.2596    -1.6043 H          1 ****  0
   48 H13        4.8219    -2.7152    -1.4691 H          1 ****  0
   49 H14        4.1909    -0.7087    -2.8208 H          1 ****  0
   50 H15        5.9306    -0.2690    -2.9692 H          1 ****  0
   51 H16        6.3833    -2.4618    -4.0755 H          1 ****  0
   52 H17        4.6475    -2.8908    -3.9369 H          1 ****  0
   53 H18        4.8496    -0.3659    -5.2614 H          1 ****  0
   54 H19        4.9790    -1.9713    -8.4675 H          1 ****  0
   55 H20        4.6938    -0.4536    -7.5738 H          1 ****  0
   56 H21        5.6628    -3.9100    -5.6010 H          1 ****  0
   57 H22        5.5263    -3.9323    -7.3793 H          1 ****  0
   58 H23       -2.7201    -2.1735     2.6465 H          1 ****  0
   59 H24       -0.9906    -2.1391     2.1841 H          1 ****  0
   60 H25       -1.7930    -3.7160     2.5325 H          1 ****  0
   61 H26        8.0483     2.0264    -0.8316 H          1 ****  0
   62 H27       10.4709     1.6101    -1.4520 H          1 ****  0
   63 H28        9.3261     0.5960    -2.3969 H          1 ****  0
   64 H29       10.8489    -0.3114     0.1263 H          1 ****  0
   65 H30        9.8905    -2.5484    -0.5002 H          1 ****  0
   66 H31        9.0086    -1.7813    -1.8674 H          1 ****  0
   67 H32        7.4686    -2.0020     0.0412 H          1 ****  0
   68 H33        8.6445    -1.1921     1.1303 H          1 ****  0
   69 H34       12.3184    -0.0304    -1.8772 H          1 ****  0
   70 H35       11.1910    -1.0430    -2.8412 H          1 ****  0
   71 H36       12.0938    -1.7638    -1.4668 H          1 ****  0
@<TRIPOS>BOND
    1     1     2 ar
    2     1    10 ar
    3     1    11 1
    4     2     3 ar
    5     2    36 1
    6     3     4 ar
    7     3    37 1
    8     4     5 ar
    9     4    38 1
   10     5     6 1
   11     5    10 ar
   12     6     7 1
   13     6    39 1
   14     6    40 1
   15     7     8 1
   16     7    23 1
   17     7    41 1
   18     8     9 1
   19     8    42 1
   20     8    43 1
   21     9    10 1
   22     9    44 1
   23    11    12 am
   24    11    24 2
   25    11    25 2
   26    12    45 1
   27    13    12 1
   28    13    14 1
   29    13    16 1
   30    13    46 1
   31    14    15 2
   32    14    26 am
   33    16    17 1
   34    16    47 1
   35    16    48 1
   36    17    18 1
   37    17    49 1
   38    17    50 1
   39    18    19 1
   40    18    51 1
   41    18    52 1
   42    19    20 1
   43    19    53 1
   44    20    21 2
   45    20    22 1
   46    21    54 1
   47    21    55 1
   48    22    56 1
   49    22    57 1
   50    23    58 1
   51    23    59 1
   52    23    60 1
   53    26    27 1
   54    26    31 1
   55    27    28 1
   56    27    32 1
   57    27    61 1
   58    28    29 1
   59    28    62 1
   60    28    63 1
   61    29    30 1
   62    29    35 1
   63    29    64 1
   64    30    31 1
   65    30    65 1
   66    30    66 1
   67    31    67 1
   68    31    68 1
   69    32    33 ar
   70    32    34 ar
   71    35    69 1
   72    35    70 1
   73    35    71 1
@<TRIPOS>SUBSTRUCTURE
1   ****   1
@<TRIPOS>MOLECULE
1dwd
69  72  1  0  0
SMALL
FORMAL_CHARGES
@<TRIPOS>ATOM
    1 N1         8.7226    -0.5719     2.2527 N.am       1 ****  0
    2 C1         8.7368    -1.1431     3.5711 C.3        1 ****  0
    3 C2         7.6270    -0.4996     4.4230 C.3        1 ****  0
    4 C3         7.7891     1.0296     4.3934 C.3        1 ****  0
    5 C4         7.6551     1.5041     2.9365 C.3        1 ****  0
    6 C5         8.7649     0.8553     2.0886 C.3        1 ****  0
    7 N2         7.6755     0.0754    -0.4866 N.am       1 ****  0
    8 C6         8.9183    -0.0997     0.3275 C.3        1 ****  0
    9 C7         8.6766    -1.4515     1.1372 C.2        1 ****  0
   10 O1         8.6590    -2.6693     1.3472 O.2        1 ****  0
   11 C8        10.0441    -0.4172    -0.7239 C.3        1 ****  0
   12 C9        11.0898    -1.4895    -0.5994 C.ar       1 ****  0
   13 C10       12.3705    -1.1545    -0.1764 C.ar       1 ****  0
   14 C11       10.7955    -2.7999    -0.9568 C.ar       1 ****  0
   15 C12       13.3574    -2.1306    -0.1101 C.ar       1 ****  0
   16 C13       11.7824    -3.7760    -0.8905 C.ar       1 ****  0
   17 C14       13.0631    -3.4411    -0.4671 C.ar       1 ****  0
   18 N3         4.0166     0.4606    -0.0476 N.am       1 ****  0
   19 C15        5.3240     0.9299    -0.3988 C.3        1 ****  0
   20 C16        6.3244    -0.1745    -0.2348 C.2        1 ****  0
   21 O2         5.9534    -1.2995     0.1185 O.2        1 ****  0
   22 S1         2.7158     1.5596    -0.0000 S.O2       1 ****  0
   23 O3         2.7759     2.4707    -1.2112 O.2        1 ****  0
   24 O4         2.8120     2.4010     1.2582 O.2        1 ****  0
   25 C17        1.1834    -0.7100    -0.0002 C.ar       1 ****  0
   26 C18        1.1860     0.6798    -0.0001 C.ar       1 ****  0
   27 C19       -0.0153     1.3779    -0.0000 C.ar       1 ****  0
   28 C20       -1.2197     0.6855    -0.0001 C.ar       1 ****  0
   29 C21       -1.2227    -0.7043    -0.0002 C.ar       1 ****  0
   30 C22       -0.0213    -1.4025    -0.0002 C.ar       1 ****  0
   31 C23       -2.4209     1.3838    -0.0001 C.ar       1 ****  0
   32 C24       -3.6257     0.6916    -0.0002 C.ar       1 ****  0
   33 C25       -3.6289    -0.6982    -0.0002 C.ar       1 ****  0
   34 C26       -2.4274    -1.3965    -0.0002 C.ar       1 ****  0
   35 C27       14.1048    -4.4708    -0.3971 C.2        1 ****  0
   36 N4        13.8123    -5.7888    -0.7552 N.3        1 ****  0
   37 N5        15.2762    -4.1641    -0.0098 N.2        1 ****  1
   38 H1         8.5637    -2.2272     3.5029 H          1 ****  0
   39 H2         9.7135    -0.9570     4.0418 H          1 ****  0
   40 H3         7.7052    -0.8565     5.4606 H          1 ****  0
   41 H4         6.6437    -0.7722     4.0121 H          1 ****  0
   42 H5         7.0043     1.4962     5.0068 H          1 ****  0
   43 H6         8.7814     1.3044     4.7807 H          1 ****  0
   44 H7         7.7546     2.5988     2.8949 H          1 ****  0
   45 H8         6.6718     1.2077     2.5425 H          1 ****  0
   46 H9         8.6109     1.1083     1.0292 H          1 ****  0
   47 H10        9.7444     1.2332     2.4168 H          1 ****  0
   48 H11        7.9715     1.0096    -0.8038 H          1 ****  0
   49 H12        9.1812     0.7597     0.9617 H          1 ****  0
   50 H13       10.3147     0.4302    -0.0769 H          1 ****  0
   51 H14       10.0015    -0.0710    -1.7671 H          1 ****  0
   52 H15       12.6029    -0.1171     0.1059 H          1 ****  0
   53 H16        9.7817    -3.0644    -1.2920 H          1 ****  0
   54 H17       14.3712    -1.8661     0.2249 H          1 ****  0
   55 H18       11.5500    -4.8134    -1.1730 H          1 ****  0
   56 H19        3.8644    -0.5336     0.1744 H          1 ****  0
   57 H20        5.3220     1.2682    -1.4455 H          1 ****  0
   58 H21        5.5992     1.7713     0.2543 H          1 ****  0
   59 H22        2.1350    -1.2618    -0.0002 H          1 ****  0
   60 H23       -0.0128     2.4779     0.0000 H          1 ****  0
   61 H24       -0.0239    -2.5025    -0.0003 H          1 ****  0
   62 H25       -2.4181     2.4838    -0.0001 H          1 ****  0
   63 H26       -4.5771     1.2437    -0.0002 H          1 ****  0
   64 H27       -4.5830    -1.2457    -0.0002 H          1 ****  0
   65 H28       -2.4301    -2.4965    -0.0002 H          1 ****  0
   66 H29       12.8633    -6.0374    -1.0690 H          1 ****  0
   67 H30       14.5445    -6.5115    -0.7057 H          1 ****  0
   68 H31       16.0083    -4.8869     0.0397 H          1 ****  0
   69 H32       15.4931    -3.1925     0.2546 H          1 ****  0
@<TRIPOS>BOND
    1     1     2 1
    2     1     6 1
    3     1     9 am
    4     2     3 1
    5     2    38 1
    6     2    39 1
    7     3     4 1
    8     3    40 1
    9     3    41 1
   10     4     5 1
   11     4    42 1
   12     4    43 1
   13     5     6 1
   14     5    44 1
   15     5    45 1
   16     6    46 1
   17     6    47 1
   18     7    20 am
   19     7    48 1
   20     8     7 1
   21     8     9 1
   22     8    11 1
   23     8    49 1
   24     9    10 2
   25    11    12 1
   26    11    50 1
   27    11    51 1
   28    12    13 ar
   29    12    14 ar
   30    13    15 ar
   31    13    52 1
   32    14    16 ar
   33    14    53 1
   34    15    17 ar
   35    15    54 1
   36    16    17 ar
   37    16    55 1
   38    17    35 1
   39    18    19 1
   40    18    22 am
   41    18    56 1
   42    19    20 1
   43    19    57 1
   44    19    58 1
   45    20    21 2
   46    22    23 2
   47    22    24 2
   48    22    26 1
   49    25    26 ar
   50    25    30 ar
   51    25    59 1
   52    26    27 ar
   53    27    28 ar
   54    27    60 1
   55    28    29 ar
   56    28    31 ar
   57    29    30 ar
   58    29    34 ar
   59    30    61 1
   60    31    32 ar
   61    31    62 1
   62    32    33 ar
   63    32    63 1
   64    33    34 ar
   65    33    64 1
   66    34    65 1
   67    35    36 1
   68    35    37 2
   69    36    66 1
   70    36    67 1
   71    37    68 1
   72    37    69 1
@<TRIPOS>SUBSTRUCTURE
1   ****   1
@<TRIPOS>MOLECULE
1dy9
68  67  1  0  0
SMALL
FORMAL_CHARGES
@<TRIPOS>ATOM
    1 O1         4.0799     2.0126     0.0203 O.2        1 ****  0
    2 C1         4.1441     0.7758    -0.0202 C.2        1 ****  0
    3 O2         2.9845    -0.0447    -0.0111 O.3        1 ****  0
    4 C2         1.7138     0.6635     0.0434 C.3        1 ****  0
    5 C3         0.5854    -0.3827     0.0432 C.3        1 ****  0
    6 C4         1.5952     1.4966     1.3420 C.3        1 ****  0
    7 C5         1.5286     1.5689    -1.1980 C.3        1 ****  0
    8 N1         5.3988     0.1665    -0.0740 N.am       1 ****  0
    9 C6         6.6179     0.2160    -0.9468 C.3        1 ****  0
   10 C7         7.7943     0.1080     0.0338 C.2        1 ****  0
   11 O3         7.6600    -1.0898     0.3150 O.2        1 ****  0
   12 C8         6.6584     1.6803    -1.5063 C.3        1 ****  0
   13 C9         6.6653     0.6190    -2.6222 C.3        1 ****  0
   14 C10        6.6730     1.2950    -3.9599 C.2        1 ****  0.0000
   15 O4         6.6709     0.6178    -4.9941 O.co2      1 ****  -0.50
   16 O5         6.6687     2.6505    -4.0351 O.co2      1 ****  -0.50
   17 N2         9.0717     0.6696    -0.1096 N.am       1 ****  0
   18 C11       10.3399     0.6570     0.8019 C.3        1 ****  0
   19 C12       11.4835     0.7005    -0.1919 C.2        1 ****  0
   20 O6        11.3633     1.8745    -0.5639 O.2        1 ****  0
   21 C13       10.3742    -0.8538     1.4116 C.3        1 ****  0
   22 C14       10.6464     0.1336     2.5875 C.3        1 ****  0
   23 C15       10.8461    -0.6722     3.8824 C.3        1 ****  0
   24 C16        9.4819     1.1236     2.7977 C.3        1 ****  0
   25 N3        12.7523     0.1453     0.0476 N.am       1 ****  0
   26 C17       13.9642     0.9132    -0.1069 C.3        1 ****  0
   27 C18       15.1845     0.7145     0.9542 C.3        1 ****  0
   28 O7        15.0526    -0.6807     1.3992 O.3        1 ****  0
   29 C19       14.0484     1.5356    -1.5288 C.3        1 ****  0
   30 C20       14.1320     0.4382    -2.6134 C.3        1 ****  0
   31 F1        14.2409     1.0341    -3.8521 F          1 ****  0
   32 F2        13.0021    -0.3519    -2.5887 F          1 ****  0
   33 C21       16.5025     0.7090     0.0877 C.2        1 ****  0.0000
   34 O8        17.5192     0.1479     0.5107 O.co2      1 ****  -0.50
   35 O9        16.5885     1.9838    -0.3760 O.co2      1 ****  -0.50
   36 H1         0.6759    -1.0380     0.9221 H          1 ****  0
   37 H2         0.6278    -0.9858    -0.8757 H          1 ****  0
   38 H3        -0.3830     0.1375     0.0842 H          1 ****  0
   39 H4         2.4213     2.2222     1.3747 H          1 ****  0
   40 H5         1.6758     0.8204     2.2058 H          1 ****  0
   41 H6         0.6306     2.0247     1.3674 H          1 ****  0
   42 H7         1.5616     0.9433    -2.1022 H          1 ****  0
   43 H8         2.3529     2.2964    -1.2333 H          1 ****  0
   44 H9         0.5650     2.0965    -1.1420 H          1 ****  0
   45 H10        5.4725    -0.8608    -0.0629 H          1 ****  0
   46 H11        6.6513    -0.5358    -1.7491 H          1 ****  0
   47 H12        7.5806     2.2773    -1.5613 H          1 ****  0
   48 H13        5.7831     2.3354    -1.6274 H          1 ****  0
   49 H14        7.5629    -0.0093    -2.5248 H          1 ****  0
   50 H15        5.7675    -0.0106    -2.5360 H          1 ****  0
   51 H16        9.1612     1.6730    -0.3242 H          1 ****  0
   52 H17       10.4193     1.4439     1.5664 H          1 ****  0
   53 H18        9.4385    -1.3972     1.6095 H          1 ****  0
   54 H19       11.1915    -1.5885     1.3647 H          1 ****  0
   55 H20       11.5463     0.7138     2.3352 H          1 ****  0
   56 H21       11.7045    -1.3507     3.7691 H          1 ****  0
   57 H22        9.9404    -1.2576     4.0991 H          1 ****  0
   58 H23       11.0385     0.0200     4.7154 H          1 ****  0
   59 H24        8.5697     0.5450     3.0054 H          1 ****  0
   60 H25        9.3377     1.6902     1.8659 H          1 ****  0
   61 H26        9.6983     1.8079     3.6313 H          1 ****  0
   62 H27       12.8191    -0.8393     0.3422 H          1 ****  0
   63 H28       13.9687     1.7370     0.6219 H          1 ****  0
   64 H29       15.1928     1.4511     1.7711 H          1 ****  0
   65 H30       14.2178    -1.2128     1.4060 H          1 ****  0
   66 H31       13.1562     2.1538    -1.7075 H          1 ****  0
   67 H32       14.9402     2.1763    -1.5931 H          1 ****  0
   68 H33       15.0115    -0.1922    -2.4157 H          1 ****  0
@<TRIPOS>BOND
    1     1     2 2
    2     2     3 1
    3     2     8 am
    4     3     4 1
    5     4     5 1
    6     4     6 1
    7     4     7 1
    8     5    36 1
    9     5    37 1
   10     5    38 1
   11     6    39 1
   12     6    40 1
   13     6    41 1
   14     7    42 1
   15     7    43 1
   16     7    44 1
   17     8    45 1
   18     9     8 1
   19     9    10 1
   20     9    12 1
   21     9    46 1
   22    10    11 2
   23    10    17 am
   24    12    13 1
   25    12    47 1
   26    12    48 1
   27    13    14 1
   28    13    49 1
   29    13    50 1
   30    14    15 ar
   31    14    16 ar
   32    17    51 1
   33    18    17 1
   34    18    19 1
   35    18    21 1
   36    18    52 1
   37    19    20 2
   38    19    25 am
   39    21    22 1
   40    21    53 1
   41    21    54 1
   42    22    23 1
   43    22    24 1
   44    22    55 1
   45    23    56 1
   46    23    57 1
   47    23    58 1
   48    24    59 1
   49    24    60 1
   50    24    61 1
   51    25    62 1
   52    26    25 1
   53    26    27 1
   54    26    29 1
   55    26    63 1
   56    27    28 1
   57    27    33 1
   58    27    64 1
   59    28    65 1
   60    29    30 1
   61    29    66 1
   62    29    67 1
   63    30    31 1
   64    30    32 1
   65    30    68 1
   66    33    34 ar
   67    33    35 ar
@<TRIPOS>SUBSTRUCTURE
1   ****   1
@<TRIPOS>MOLECULE
1eap
43  43  1  0  0
SMALL
FORMAL_CHARGES
@<TRIPOS>ATOM
    1 C1         5.0603     1.5009     0.0046 C.3        1 ****  0
    2 C2         5.0372     2.4617    -1.2116 C.3        1 ****  0
    3 C3         5.1660     1.6746    -2.5277 C.3        1 ****  0
    4 C4         5.0974     2.6397    -3.7193 C.3        1 ****  0
    5 C5         5.2013     1.8355    -5.0273 C.3        1 ****  0
    6 C6         1.2214    -0.6851    -0.0002 C.ar       1 ****  0
    7 C7         0.0176    -1.3800    -0.0004 C.ar       1 ****  0
    8 C8        -1.1858    -0.6848    -0.0003 C.ar       1 ****  0
    9 C9        -1.1859     0.7051     0.0000 C.ar       1 ****  0
   10 C10        0.0178     1.3999     0.0002 C.ar       1 ****  0
   11 C11        1.2213     0.7046     0.0001 C.ar       1 ****  0
   12 C12        7.5155     1.3460     0.1739 C.2        1 ****  0
   13 C13        9.9895     1.4816     0.2591 C.3        1 ****  0
   14 C14        8.7795     0.5389     0.1072 C.3        1 ****  0
   15 C15       11.2635     0.6894     0.1868 C.2        1 ****  0.0000
   16 O1         3.7430    -0.3141    -1.1123 O.2        1 ****  0
   17 O2         3.7585    -0.3573     1.2578 O.2        1 ****  -1
   18 O3         2.4428     1.4085     0.0003 O.3        1 ****  0
   19 O4         7.5771     2.5619     0.3897 O.2        1 ****  0
   20 O5        12.3542     1.2627     0.2890 O.co2      1 ****  -0.50
   21 O6        11.2180    -0.6559     0.0074 O.co2      1 ****  -0.50
   22 N1         6.2710     0.7221    -0.0032 N.am       1 ****  0
   23 P1         3.7217     0.5003     0.0039 P.3        1 ****  0
   24 H1         5.0311     2.1051     0.9234 H          1 ****  0
   25 H2         5.8725     3.1728    -1.1308 H          1 ****  0
   26 H3         4.0905     3.0220    -1.2148 H          1 ****  0
   27 H4         6.1288     1.1427    -2.5433 H          1 ****  0
   28 H5         4.3459     0.9452    -2.6009 H          1 ****  0
   29 H6         5.9304     3.3558    -3.6620 H          1 ****  0
   30 H7         4.1411     3.1830    -3.6976 H          1 ****  0
   31 H8         4.3687     1.1191    -5.0887 H          1 ****  0
   32 H9         6.1568     1.2911    -5.0524 H          1 ****  0
   33 H10        5.1524     2.5240    -5.8838 H          1 ****  0
   34 H11        2.1740    -1.2352    -0.0003 H          1 ****  0
   35 H12        0.0174    -2.4800    -0.0006 H          1 ****  0
   36 H13       -2.1385    -1.2347    -0.0004 H          1 ****  0
   37 H14       -2.1385     1.2551     0.0001 H          1 ****  0
   38 H15        0.0180     2.4999     0.0004 H          1 ****  0
   39 H16        9.9765     2.2271    -0.5495 H          1 ****  0
   40 H17        9.9343     1.9962     1.2298 H          1 ****  0
   41 H18        8.7865    -0.2012     0.9210 H          1 ****  0
   42 H19        8.8364     0.0225    -0.8624 H          1 ****  0
   43 H20        6.2236    -0.2977    -0.1394 H          1 ****  0
@<TRIPOS>BOND
    1     1     2 1
    2     1    22 1
    3     1    23 1
    4     1    24 1
    5     2     3 1
    6     2    25 1
    7     2    26 1
    8     3     4 1
    9     3    27 1
   10     3    28 1
   11     4     5 1
   12     4    29 1
   13     4    30 1
   14     5    31 1
   15     5    32 1
   16     5    33 1
   17     6     7 ar
   18     6    11 ar
   19     6    34 1
   20     7     8 ar
   21     7    35 1
   22     8     9 ar
   23     8    36 1
   24     9    10 ar
   25     9    37 1
   26    10    11 ar
   27    10    38 1
   28    11    18 1
   29    12    14 1
   30    12    19 2
   31    12    22 am
   32    13    14 1
   33    13    15 1
   34    13    39 1
   35    13    40 1
   36    14    41 1
   37    14    42 1
   38    15    20 ar
   39    15    21 ar
   40    16    23 2
   41    22    43 1
   42    23    17 1
   43    23    18 1
@<TRIPOS>SUBSTRUCTURE
1   ****   1
@<TRIPOS>MOLECULE
1ebg
12  11  1  0  0
SMALL
FORMAL_CHARGES
@<TRIPOS>ATOM
    1 C1         3.8229     0.9111    -0.0560 C.3        1 ****  0
    2 C2         2.5867     0.0566    -0.0118 C.2        1 ****  0
    3 N1         1.3263     0.6608    -0.0103 N.am       1 ****  0
    4 O1         0.2329    -0.0866     0.0204 O.3        1 ****  -1
    5 O2         2.6829    -1.1738     0.0176 O.2        1 ****  0
    6 O3         6.3040     0.7526    -0.0192 O.co2      1 ****  0
    7 O4         5.1695    -0.8278     1.3278 O.co2      1 ****  -1
    8 O5         5.1948    -1.0097    -1.1429 O.co2      1 ****  -1
    9 P1         5.1783    -0.0459     0.0282 P.3        1 ****  0
   10 H1         3.8160     1.6094     0.7939 H          1 ****  0
   11 H2         3.8379     1.4835    -0.9952 H          1 ****  0
   12 H3         1.2476     1.6876    -0.0330 H          1 ****  0
@<TRIPOS>BOND
    1     1     2 1
    2     1     9 1
    3     1    10 1
    4     1    11 1
    5     2     3 am
    6     2     5 2
    7     3     4 1
    8     3    12 1
    9     6     9 ar
   10     7     9 ar
   11     8     9 ar
@<TRIPOS>SUBSTRUCTURE
1   ****   1
@<TRIPOS>MOLECULE
1eed
101  102  1  0  0
SMALL
FORMAL_CHARGES
@<TRIPOS>ATOM
    1 O1         2.8986    -2.2251    -2.7164 O.2        1 ****  0
    2 C1         3.0200    -1.0163    -2.9505 C.2        1 ****  0
    3 O2         1.7648    -3.3985    -7.3342 O.3        1 ****  0
    4 C2         2.1137    -2.4275    -6.3066 C.3        1 ****  0
    5 C3         3.6028    -2.4845    -5.4778 C.3        1 ****  0
    6 C4         1.1351    -2.1786    -4.9436 C.3        1 ****  0
    7 C5         2.2699    -0.6974    -6.6033 C.3        1 ****  0
    8 C6         8.5210    -0.4606    -1.4513 C.2        1 ****  0
    9 O3         8.2835     0.6723    -1.8849 O.2        1 ****  0
   10 C7         7.4135    -1.3143    -0.9685 C.3        1 ****  0
   11 C8         6.1044    -0.5177    -1.0236 C.3        1 ****  0
   12 C9         4.9467    -1.3793    -0.4894 C.3        1 ****  0
   13 O4         4.8092    -2.5719    -1.2724 O.3        1 ****  0
   14 C10        3.6433    -0.5561    -0.5516 C.3        1 ****  0
   15 N1         3.3818    -0.1196    -1.9179 N.am       1 ****  0
   16 C11        2.4842    -1.4303    -0.0262 C.3        1 ****  0
   17 C12        1.1943    -0.6596    -0.0200 C.ar       1 ****  0
   18 C13       -0.0137    -1.3507     0.0461 C.ar       1 ****  0
   19 C14        1.1959     0.7255    -0.0760 C.ar       1 ****  0
   20 C15       -1.2125    -0.6531     0.0513 C.ar       1 ****  0
   21 C16       -0.0064     1.4267    -0.0653 C.ar       1 ****  0
   22 C17       -1.2093     0.7373    -0.0031 C.ar       1 ****  0
   23 N2         9.8299    -0.8878    -1.3054 N.am       1 ****  0
   24 C18       11.2103    -0.6668    -0.7771 C.3        1 ****  0
   25 C19       12.1374    -0.8120    -2.0506 C.3        1 ****  0
   26 C20       13.4400    -0.1354    -2.7279 C.3        1 ****  0
   27 C21       13.0790     0.6759    -3.9998 C.3        1 ****  0
   28 C22       14.3973     0.7363    -1.8368 C.3        1 ****  0
   29 C23       12.4698     2.0488    -3.6394 C.3        1 ****  0
   30 C24       13.8852     2.1642    -1.5632 C.3        1 ****  0
   31 C25       13.5239     2.8752    -2.8761 C.3        1 ****  0
   32 C26       11.1466     0.7932    -0.2479 C.3        1 ****  0
   33 O5         9.9819     1.5260     0.1560 O.3        1 ****  0
   34 C27       11.5394    -0.1818     0.8542 C.3        1 ****  0
   35 C28       11.8230     0.6174     2.0710 C.2        1 ****  0
   36 O6        11.7807     1.8518     2.0209 O.2        1 ****  0
   37 N3        12.1309    -0.0141     3.2573 N.am       1 ****  0
   38 C29       11.5661    -0.0138     4.6280 C.3        1 ****  0
   39 C30       11.0073     1.4086     4.7671 C.2        1 ****  0
   40 O7        10.0839     0.7282     5.2264 O.2        1 ****  0
   41 C31       12.7493    -0.1721     5.5745 C.3        1 ****  0
   42 C32       12.9165     0.6092     6.8980 C.3        1 ****  0
   43 C33       14.0276     1.6713     6.7666 C.3        1 ****  0
   44 C34       13.2970    -0.3779     8.0138 C.3        1 ****  0
   45 N4        10.8294     2.7720     4.5494 N.am       1 ****  0
   46 H1         3.7781    -2.9903    -4.5486 H          1 ****  0
   47 H2         4.4939    -1.9610    -5.7641 H          1 ****  0
   48 H3         3.3349    -3.1852    -6.2289 H          1 ****  0
   49 H4         0.3573    -1.4437    -4.8611 H          1 ****  0
   50 H5         1.2452    -2.6755    -3.9987 H          1 ****  0
   51 H6         0.8982    -2.8793    -5.7004 H          1 ****  0
   52 H7         3.1731    -0.2024    -6.8810 H          1 ****  0
   53 H8         1.4803     0.0139    -6.5107 H          1 ****  0
   54 H9         2.0089    -1.4075    -7.3814 H          1 ****  0
   55 H10        7.3308    -2.1801    -1.5931 H          1 ****  0
   56 H11        7.6054    -1.6138     0.0384 H          1 ****  0
   57 H12        5.8999    -0.2357    -2.0362 H          1 ****  0
   58 H13        6.1984     0.3663    -0.4217 H          1 ****  0
   59 H14        5.1463    -1.6581     0.5545 H          1 ****  0
   60 H15        5.6189    -3.1298    -1.2030 H          1 ****  0
   61 H16        3.7615     0.3314     0.0869 H          1 ****  0
   62 H17        3.4619     0.8473    -2.1330 H          1 ****  0
   63 H18        2.3775    -2.2984    -0.6561 H          1 ****  0
   64 H19        2.7076    -1.7566     0.9735 H          1 ****  0
   65 H20       -0.0166    -2.4197     0.0928 H          1 ****  0
   66 H21        2.1233     1.2567    -0.1274 H          1 ****  0
   67 H22       -2.1401    -1.1843     0.0972 H          1 ****  0
   68 H23       -0.0033     2.4959    -0.1051 H          1 ****  0
   69 H24       -2.1344     1.2751     0.0031 H          1 ****  0
   70 H25       10.0222    -1.8111    -0.9853 H          1 ****  0
   71 H26       11.5246    -1.3574     0.0061 H          1 ****  0
   72 H27       11.7564    -1.6132    -2.7566 H          1 ****  0
   73 H28       12.4905    -1.4488    -1.1779 H          1 ****  0
   74 H29       14.0434    -0.9951    -3.0501 H          1 ****  0
   75 H30       12.3713     0.1176    -4.5906 H          1 ****  0
   76 H31       13.9700     0.8262    -4.5924 H          1 ****  0
   77 H32       14.5559     0.2278    -0.8816 H          1 ****  0
   78 H33       15.3742     0.7977    -2.3181 H          1 ****  0
   79 H34       12.1929     2.5634    -4.5350 H          1 ****  0
   80 H35       11.6121     1.9082    -3.0213 H          1 ****  0
   81 H36       14.6473     2.7255    -1.0534 H          1 ****  0
   82 H37       13.0127     2.1160    -0.9322 H          1 ****  0
   83 H38       13.1283     3.8452    -2.6580 H          1 ****  0
   84 H39       14.4044     2.9774    -3.4805 H          1 ****  0
   85 H40       11.9220     1.4824    -0.3823 H          1 ****  0
   86 H41        9.2475     0.9123     0.3631 H          1 ****  0
   87 H42       10.7338    -0.8495     1.0447 H          1 ****  0
   88 H43       12.4105    -0.7144     0.5666 H          1 ****  0
   89 H44       12.1896    -1.0049     3.2977 H          1 ****  0
   90 H45       10.8161    -0.7916     4.8267 H          1 ****  0
   91 H46       13.6835    -0.6410     5.3184 H          1 ****  0
   92 H47       12.0054    -0.9424     5.7069 H          1 ****  0
   93 H48       11.9673     1.0997     7.1569 H          1 ****  0
   94 H49       13.7682     2.3497     5.9780 H          1 ****  0
   95 H50       14.9486     1.1817     6.5183 H          1 ****  0
   96 H51       14.1339     2.2020     7.6816 H          1 ****  0
   97 H52       14.2176    -0.8625     7.7710 H          1 ****  0
   98 H53       12.5264    -1.1087     8.1299 H          1 ****  0
   99 H54       13.4152     0.1608     8.9402 H          1 ****  0
  100 H55       11.5722     3.3152     4.1723 H          1 ****  0
  101 H56        9.9599     3.2011     4.7685 H          1 ****  0
@<TRIPOS>BOND
    1     1     2 2
    2     2     3 1
    3     2    15 am
    4     3     4 1
    5     4     5 1
    6     4     6 1
    7     4     7 1
    8     5    46 1
    9     5    47 1
   10     5    48 1
   11     6    49 1
   12     6    50 1
   13     6    51 1
   14     7    52 1
   15     7    53 1
   16     7    54 1
   17     8     9 2
   18     8    10 1
   19     8    23 am
   20    10    11 1
   21    10    55 1
   22    10    56 1
   23    11    12 1
   24    11    57 1
   25    11    58 1
   26    12    13 1
   27    12    14 1
   28    12    59 1
   29    13    60 1
   30    14    15 1
   31    14    16 1
   32    14    61 1
   33    15    62 1
   34    16    17 1
   35    16    63 1
   36    16    64 1
   37    17    18 ar
   38    17    19 ar
   39    18    20 ar
   40    18    65 1
   41    19    21 ar
   42    19    66 1
   43    20    22 ar
   44    20    67 1
   45    21    22 ar
   46    21    68 1
   47    22    69 1
   48    23    70 1
   49    24    23 1
   50    24    25 1
   51    24    32 1
   52    24    71 1
   53    25    26 1
   54    25    72 1
   55    25    73 1
   56    26    27 1
   57    26    28 1
   58    26    74 1
   59    27    29 1
   60    27    75 1
   61    27    76 1
   62    28    30 1
   63    28    77 1
   64    28    78 1
   65    29    31 1
   66    29    79 1
   67    29    80 1
   68    30    31 1
   69    30    81 1
   70    30    82 1
   71    31    83 1
   72    31    84 1
   73    32    33 1
   74    32    34 1
   75    32    85 1
   76    33    86 1
   77    34    35 1
   78    34    87 1
   79    34    88 1
   80    35    36 2
   81    35    37 am
   82    37    89 1
   83    38    37 1
   84    38    39 1
   85    38    41 1
   86    38    90 1
   87    39    40 2
   88    39    45 am
   89    41    42 1
   90    41    91 1
   91    41    92 1
   92    42    43 1
   93    42    44 1
   94    42    93 1
   95    43    94 1
   96    43    95 1
   97    43    96 1
   98    44    97 1
   99    44    98 1
  100    44    99 1
  101    45   100 1
  102    45   101 1
@<TRIPOS>SUBSTRUCTURE
1   ****   1
@<TRIPOS>MOLECULE
1ei1
44  46  1  0  0
SMALL
FORMAL_CHARGES
@<TRIPOS>ATOM
    1 P1         7.3284    -5.6643    -5.7272 P.3        1 ****  0
    2 O1         8.3796    -4.7688    -5.7487 O.co2      1 ****  0
    3 O2         7.7922    -6.9779    -5.1274 O.co2      1 ****  -1
    4 O3         6.8374    -5.9055    -7.1418 O.co2      1 ****  -1
    5 P2         4.8742    -5.9244    -4.6810 P.3        1 ****  0
    6 O4         5.2320    -7.2472    -4.0328 O.2        1 ****  -1
    7 O5         4.3057    -6.1608    -5.9151 O.2        1 ****  0
    8 N1         6.1674    -5.0877    -4.8703 N.pl3      1 ****  0
    9 P3         2.5829    -6.0023    -3.5906 P.3        1 ****  0
   10 O6         2.9344    -7.3187    -2.9265 O.2        1 ****  -1
   11 O7         2.0038    -6.2474    -4.8183 O.2        1 ****  0
   12 O8         3.8702    -5.1527    -3.7795 O.3        1 ****  0
   13 O9         1.5737    -5.2420    -2.6995 O.3        1 ****  0
   14 C1         0.4079    -6.0531    -2.5360 C.3        1 ****  0
   15 C2        -0.6266    -5.3070    -1.6808 C.3        1 ****  0
   16 O10       -0.1235    -4.9725    -0.3483 O.3        1 ****  0
   17 C3        -0.5134    -3.9514    -1.3729 C.3        1 ****  0
   18 O11        0.0633    -3.1805    -2.5837 O.3        1 ****  0
   19 C4        -0.8420    -2.9618    -1.2827 C.3        1 ****  0
   20 O12       -2.2160    -2.1252    -1.1880 O.3        1 ****  0
   21 C5        -0.7258    -3.6929    -0.0009 C.3        1 ****  0
   22 N2         0.2380    -2.6340    -0.0004 N.ar       1 ****  0
   23 C6         1.5652    -2.7851    -0.0005 C.ar       1 ****  0
   24 N3         2.1448    -1.5760    -0.0004 N.ar       1 ****  0
   25 C7         1.1607    -0.6870    -0.0002 C.ar       1 ****  0
   26 C8         1.1916     0.6934    -0.0001 C.ar       1 ****  0
   27 N4         2.4226     1.4171    -0.0001 N.pl3      1 ****  0
   28 N5         0.0150     1.3170     0.0000 N.ar       1 ****  0
   29 C9        -1.1385     0.6361     0.0000 C.ar       1 ****  0
   30 N6        -1.1857    -0.6981    -0.0001 N.ar       1 ****  0
   31 C10       -0.0328    -1.3446    -0.0002 C.ar       1 ****  0
   32 H1         6.2553    -4.1596    -4.4324 H          1 ****  0
   33 H2        -0.0250    -6.2750    -3.5226 H          1 ****  0
   34 H3         0.6826    -6.9948    -2.0382 H          1 ****  0
   35 H4        -1.4683    -6.0115    -1.6093 H          1 ****  0
   36 H5         0.0542    -3.9081    -0.4316 H          1 ****  0
   37 H6         0.6692    -3.6542    -3.2070 H          1 ****  0
   38 H7         0.1053    -2.4393    -1.4816 H          1 ****  0
   39 H8        -2.8187    -2.0599    -1.9707 H          1 ****  0
   40 H9        -1.1477    -3.6898     1.0150 H          1 ****  0
   41 H10        2.0976    -3.7477    -0.0006 H          1 ****  0
   42 H11        3.3074     0.8899    -0.0002 H          1 ****  0
   43 H12        2.4296     2.4471     0.0000 H          1 ****  0
   44 H13       -2.0840     1.1982     0.0001 H          1 ****  0
@<TRIPOS>BOND
    1     1     2 ar
    2     1     3 ar
    3     1     4 ar
    4     1     8 1
    5     5     6 1
    6     5     7 2
    7     5     8 1
    8     5    12 1
    9     8    32 1
   10     9    10 1
   11     9    11 2
   12     9    12 1
   13     9    13 1
   14    13    14 1
   15    14    15 1
   16    14    33 1
   17    14    34 1
   18    15    16 1
   19    15    17 1
   20    15    35 1
   21    17    18 1
   22    17    19 1
   23    17    36 1
   24    18    37 1
   25    19    20 1
   26    19    21 1
   27    19    38 1
   28    20    39 1
   29    21    16 1
   30    21    22 1
   31    21    40 1
   32    22    23 ar
   33    22    31 ar
   34    23    24 ar
   35    23    41 1
   36    24    25 ar
   37    25    26 ar
   38    25    31 ar
   39    26    27 1
   40    26    28 ar
   41    27    42 1
   42    27    43 1
   43    28    29 ar
   44    29    30 ar
   45    29    44 1
   46    30    31 ar
@<TRIPOS>SUBSTRUCTURE
1   ****   1
@<TRIPOS>MOLECULE
1ejn
53  56  1  0  0
SMALL
FORMAL_CHARGES
@<TRIPOS>ATOM
    1 C1         1.0104    -0.8703    -0.1445 C.3        1 ****  0
    2 C2         1.1512     0.6669    -0.1532 C.3        1 ****  0
    3 C3         0.2815    -1.3133     1.1412 C.3        1 ****  0
    4 C4         0.1994    -1.3213    -1.3782 C.3        1 ****  0
    5 C5        -1.0629     0.8612    -1.3442 C.3        1 ****  0
    6 C6        -0.2512     1.3105    -0.1105 C.3        1 ****  0
    7 C7        -1.2022    -0.6762    -1.3342 C.3        1 ****  0
    8 C8        -0.9813     0.8693     1.1753 C.3        1 ****  0
    9 C9        -1.9331    -1.1190    -0.0491 C.3        1 ****  0
   10 C10       -1.1201    -0.6680     1.1833 C.3        1 ****  0
   11 N1        -3.6492    -2.1756     3.5469 N.am       1 ****  0
   12 C11       -3.0277    -1.7974     2.3570 C.2        1 ****  0
   13 N2        -1.8080    -1.0852     2.3934 N.am       1 ****  0
   14 O1        -3.5609    -2.0952     1.2817 O.2        1 ****  0
   15 C12       -4.8879    -2.8986     3.4857 C.3        1 ****  0
   16 C13       -4.6539    -2.7938     5.9789 C.ar       1 ****  0
   17 C14       -5.3818    -3.2049     4.8690 C.ar       1 ****  0
   18 C15       -6.5722    -3.9026     5.0364 C.ar       1 ****  0
   19 C16       -7.0348    -4.1893     6.3151 C.ar       1 ****  0
   20 C17       -6.3067    -3.7781     7.4253 C.ar       1 ****  0
   21 C18       -5.1164    -3.0804     7.2575 C.ar       1 ****  0
   22 N3        -6.7797    -4.0713     8.7316 N.pl3      1 ****  0
   23 N4        -8.8216    -5.2546     8.0118 N.3        1 ****  0
   24 C19       -7.9797    -4.7759     9.0198 C.2        1 ****  0
   25 N5        -8.2982    -4.9777    10.2333 N.2        1 ****  1
   26 H1         2.0095    -1.3294    -0.1759 H          1 ****  0
   27 H2         1.7284     0.9875     0.7266 H          1 ****  0
   28 H3         1.6715     0.9835    -1.0692 H          1 ****  0
   29 H4         0.1809    -2.4087     1.1473 H          1 ****  0
   30 H5         0.8589    -0.9924     2.0208 H          1 ****  0
   31 H6         0.0987    -2.4166    -1.3720 H          1 ****  0
   32 H7         0.7194    -1.0055    -2.2946 H          1 ****  0
   33 H8        -2.0616     1.3213    -1.3128 H          1 ****  0
   34 H9        -0.5418     1.1765    -2.2602 H          1 ****  0
   35 H10       -0.1514     2.4059    -0.1175 H          1 ****  0
   36 H11       -1.7805    -0.9969    -2.2133 H          1 ****  0
   37 H12       -1.9809     1.3274     1.2066 H          1 ****  0
   38 H13       -0.4026     1.1895     2.0543 H          1 ****  0
   39 H14       -2.9317    -0.6588    -0.0176 H          1 ****  0
   40 H15       -2.0327    -2.2144    -0.0412 H          1 ****  0
   41 H16       -3.2259    -1.9398     4.4558 H          1 ****  0
   42 H17       -1.3929    -0.8543     3.3073 H          1 ****  0
   43 H18       -4.7349    -3.8397     2.9372 H          1 ****  0
   44 H19       -5.6381    -2.2920     2.9573 H          1 ****  0
   45 H20       -3.7119    -2.2416     5.8454 H          1 ****  0
   46 H21       -7.1478    -4.2277     4.1572 H          1 ****  0
   47 H22       -7.9768    -4.7414     6.4486 H          1 ****  0
   48 H23       -4.5407    -2.7553     8.1365 H          1 ****  0
   49 H24       -6.2117    -3.7497     9.5284 H          1 ****  0
   50 H25       -8.5563    -5.0869     7.0308 H          1 ****  0
   51 H26       -9.6878    -5.7635     8.2391 H          1 ****  0
   52 H27       -9.1615    -5.4850    10.4749 H          1 ****  0
   53 H28       -7.6837    -4.6284    10.9825 H          1 ****  0
@<TRIPOS>BOND
    1     1     2 1
    2     1     3 1
    3     1     4 1
    4     1    26 1
    5     2    27 1
    6     2    28 1
    7     3    10 1
    8     3    29 1
    9     3    30 1
   10     4    31 1
   11     4    32 1
   12     5     6 1
   13     5     7 1
   14     5    33 1
   15     5    34 1
   16     6     2 1
   17     6     8 1
   18     6    35 1
   19     7     4 1
   20     7     9 1
   21     7    36 1
   22     8    10 1
   23     8    37 1
   24     8    38 1
   25     9    10 1
   26     9    39 1
   27     9    40 1
   28    10    13 1
   29    11    12 am
   30    11    15 1
   31    11    41 1
   32    12    13 am
   33    12    14 2
   34    13    42 1
   35    15    17 1
   36    15    43 1
   37    15    44 1
   38    16    17 ar
   39    16    21 ar
   40    16    45 1
   41    17    18 ar
   42    18    19 ar
   43    18    46 1
   44    19    20 ar
   45    19    47 1
   46    20    21 ar
   47    20    22 1
   48    21    48 1
   49    22    24 1
   50    22    49 1
   51    23    24 1
   52    23    50 1
   53    23    51 1
   54    24    25 2
   55    25    52 1
   56    25    53 1
@<TRIPOS>SUBSTRUCTURE
1   ****   1
@<TRIPOS>MOLECULE
1eoc
14  14  1  0  0
SMALL
FORMAL_CHARGES
@<TRIPOS>ATOM
    1 C1         1.2213    -0.6892    -0.0001 C.ar       1 ****  0
    2 C2         1.2210     0.7007    -0.0000 C.ar       1 ****  0
    3 C3         0.0172     1.3955    -0.0000 C.ar       1 ****  0
    4 C4        -1.1863     0.7003    -0.0001 C.ar       1 ****  0
    5 C5        -1.1858    -0.6895    -0.0002 C.ar       1 ****  0
    6 C6         0.0179    -1.3843    -0.0002 C.ar       1 ****  0
    7 O1         2.3978    -1.3684    -0.0001 O.co2      1 ****  -1
    8 O2         2.3974     1.3800     0.0000 O.co2      1 ****  -1
    9 N1        -2.3963     1.3982    -0.0000 N.pl3      1 ****  0.0000
   10 O3        -3.5142     0.7511    -0.0001 O.2        1 ****  0.0000
   11 O4        -2.3976     2.5741     0.0000 O.2        1 ****  0.0000
   12 H1         0.0171     2.4955     0.0001 H          1 ****  0
   13 H2        -2.1383    -1.2397    -0.0002 H          1 ****  0
   14 H3         0.0180    -2.4843    -0.0003 H          1 ****  0
@<TRIPOS>BOND
    1     1     2 ar
    2     1     6 ar
    3     1     7 1
    4     2     3 ar
    5     2     8 1
    6     3     4 ar
    7     3    12 1
    8     4     5 ar
    9     4     9 1
   10     5     6 ar
   11     5    13 1
   12     6    14 1
   13     9    10 2
   14     9    11 2
@<TRIPOS>SUBSTRUCTURE
1   ****   1
@<TRIPOS>MOLECULE
1epb
49  49  1  0  0
SMALL
FORMAL_CHARGES
@<TRIPOS>ATOM
    1 C1         1.2641    -0.7495     0.1537 C.3        1 ****  0
    2 C2        -0.0211    -1.3756    -0.3942 C.3        1 ****  0
    3 C3        -1.1870    -0.7374     0.3365 C.3        1 ****  0
    4 C4        -1.2897     0.7238    -0.1155 C.3        1 ****  0
    5 C5         0.0523     1.4258    -0.0565 C.2        1 ****  0
    6 C6         1.2086     0.7593     0.0632 C.2        1 ****  0
    7 C7         2.4621     1.5133     0.1094 C.2        1 ****  0
    8 C8         2.4514     2.8426     0.0328 C.2        1 ****  0
    9 C9         3.7140     3.5825     0.0805 C.2        1 ****  0
   10 C10        3.7159     4.9120     0.0048 C.2        1 ****  0
   11 C11        4.9846     5.6435     0.0534 C.2        1 ****  0
   12 C12        4.9986     6.9723    -0.0215 C.2        1 ****  0
   13 C13        6.2726     7.6948     0.0280 C.2        1 ****  0
   14 C14        6.2595     9.0326    -0.0493 C.2        1 ****  0
   15 C15        7.4626     9.9154    -0.0141 C.2        1 ****  0.0000
   16 C16        2.4664    -1.2705    -0.6569 C.3        1 ****  0
   17 C17        1.4327    -1.1492     1.6325 C.3        1 ****  0
   18 C18        0.0819     2.9209    -0.1518 C.3        1 ****  0
   19 C19        5.0113     2.8373     0.2153 C.3        1 ****  0
   20 C20        7.5466     6.9031     0.1640 C.3        1 ****  0
   21 O1         7.3071    11.1384    -0.0950 O.co2      1 ****  -0.50
   22 O2         8.7252     9.4219     0.1041 O.co2      1 ****  -0.50
   23 H1        -0.0158    -2.4598    -0.2083 H          1 ****  0
   24 H2        -0.1030    -1.1726    -1.4722 H          1 ****  0
   25 H3        -2.1170    -1.2682     0.0847 H          1 ****  0
   26 H4        -1.0113    -0.7767     1.4217 H          1 ****  0
   27 H5        -1.6683     0.7567    -1.1478 H          1 ****  0
   28 H6        -2.0022     1.2543     0.5335 H          1 ****  0
   29 H7         3.4184     0.9789     0.2079 H          1 ****  0
   30 H8         1.4982     3.3825    -0.0658 H          1 ****  0
   31 H9         2.7672     5.4599    -0.0940 H          1 ****  0
   32 H10        5.9309     5.0913     0.1523 H          1 ****  0
   33 H11        4.0544     7.5279    -0.1204 H          1 ****  0
   34 H12        5.2790     9.5215    -0.1471 H          1 ****  0
   35 H13        2.5172    -2.3665    -0.5777 H          1 ****  0
   36 H14        3.3947    -0.8313    -0.2628 H          1 ****  0
   37 H15        2.3476    -0.9860    -1.7128 H          1 ****  0
   38 H16        2.3597    -0.7098     2.0296 H          1 ****  0
   39 H17        1.4821    -2.2451     1.7147 H          1 ****  0
   40 H18        0.5751    -0.7780     2.2126 H          1 ****  0
   41 H19       -0.5623     3.2794     0.6647 H          1 ****  0
   42 H20       -0.4247     3.1643    -1.0974 H          1 ****  0
   43 H21        1.0948     3.3468    -0.1005 H          1 ****  0
   44 H22        5.0253     2.1357    -0.6318 H          1 ****  0
   45 H23        4.8999     2.2361     1.1297 H          1 ****  0
   46 H24        5.9004     3.4846     0.2416 H          1 ****  0
   47 H25        7.5501     6.2043    -0.6855 H          1 ****  0
   48 H26        7.4244     6.3051     1.0792 H          1 ****  0
   49 H27        8.4515     7.5278     0.1928 H          1 ****  0
@<TRIPOS>BOND
    1     1     2 1
    2     1     6 1
    3     1    16 1
    4     1    17 1
    5     2     3 1
    6     2    23 1
    7     2    24 1
    8     3     4 1
    9     3    25 1
   10     3    26 1
   11     4     5 1
   12     4    27 1
   13     4    28 1
   14     5     6 2
   15     5    18 1
   16     6     7 1
   17     7     8 2
   18     7    29 1
   19     8     9 1
   20     8    30 1
   21     9    10 2
   22     9    19 1
   23    10    11 1
   24    10    31 1
   25    11    12 2
   26    11    32 1
   27    12    13 1
   28    12    33 1
   29    13    14 2
   30    13    20 1
   31    14    15 1
   32    14    34 1
   33    15    21 ar
   34    15    22 ar
   35    16    35 1
   36    16    36 1
   37    16    37 1
   38    17    38 1
   39    17    39 1
   40    17    40 1
   41    18    41 1
   42    18    42 1
   43    18    43 1
   44    19    44 1
   45    19    45 1
   46    19    46 1
   47    20    47 1
   48    20    48 1
   49    20    49 1
@<TRIPOS>SUBSTRUCTURE
1   ****   1
@<TRIPOS>MOLECULE
1epo
95  97  1  0  0
SMALL
FORMAL_CHARGES
@<TRIPOS>ATOM
    1 O1         1.1515    -0.6607     0.3609 O.3        1 ****  0
    2 C1         1.2306     0.6247    -0.2558 C.3        1 ****  0
    3 C2        -0.0164     1.4469     0.1116 C.3        1 ****  0
    4 N1        -1.2103     0.6992    -0.1843 N.am       1 ****  0
    5 C3        -1.2679    -0.7116     0.0995 C.3        1 ****  0
    6 C4         0.0778    -1.3827    -0.2421 C.3        1 ****  0
    7 C5        -2.3560     1.3664    -0.6130 C.2        1 ****  0
    8 O2        -3.3996     0.7329    -0.8074 O.2        1 ****  0
    9 N2        -2.3170     2.7494    -0.8251 N.am       1 ****  0
   10 C6        -3.5129     3.4730    -1.1719 C.3        1 ****  0
   11 C7        -3.2018     4.9038    -1.5168 C.2        1 ****  0
   12 O3        -2.0221     5.2708    -1.5646 O.2        1 ****  0
   13 C8        -4.5915     3.3782    -0.0558 C.3        1 ****  0
   14 C9        -4.1195     3.9164     1.2918 C.ar       1 ****  0
   15 C10       -2.8235     4.3824     1.4758 C.ar       1 ****  0
   16 C11       -5.0098     3.8998     2.3612 C.ar       1 ****  0
   17 C12       -2.4164     4.8320     2.7271 C.ar       1 ****  0
   18 C13       -4.6030     4.3490     3.6113 C.ar       1 ****  0
   19 C14       -3.3059     4.8151     3.7941 C.ar       1 ****  0
   20 N3        -4.2551     5.8122    -1.7755 N.am       1 ****  0
   21 C15       -3.9929     7.1904    -2.1384 C.3        1 ****  0
   22 C16       -5.2713     7.8980    -2.5107 C.2        1 ****  0
   23 O4        -6.3614     7.3423    -2.3362 O.2        1 ****  0
   24 C17       -3.0034     7.2781    -3.3163 C.3        1 ****  0
   25 C18       -3.5918     6.5390    -4.5330 C.3        1 ****  0
   26 C19       -2.6069     6.6319    -5.7108 C.3        1 ****  0
   27 C20       -3.2137     5.9366    -6.9412 C.3        1 ****  0
   28 N4        -5.2184     9.1869    -3.0700 N.am       1 ****  0
   29 C21       -6.4151     9.8345    -3.5463 C.3        1 ****  0
   30 C22       -6.2858    11.3824    -3.2226 C.3        1 ****  0
   31 C23       -7.5651    12.2747    -3.4173 C.3        1 ****  0
   32 C24       -8.7968    11.6618    -2.7306 C.3        1 ****  0
   33 C25       -7.9102    12.6557    -4.8660 C.3        1 ****  0
   34 C26       -9.9463    12.6870    -2.7308 C.3        1 ****  0
   35 C27       -9.0598    13.6808    -4.8661 C.3        1 ****  0
   36 C28      -10.2961    13.0665    -4.1823 C.3        1 ****  0
   37 C29       -6.6198     9.4146    -5.0550 C.3        1 ****  0
   38 O5        -7.8553     9.9009    -5.5643 O.3        1 ****  0
   39 O6        -6.6685     7.9868    -5.0944 O.3        1 ****  0
   40 C30       -5.4449     9.8852    -5.9783 C.3        1 ****  0
   41 F1        -4.2463     9.4237    -5.5052 F          1 ****  0
   42 F2        -5.3793    11.2551    -6.0601 F          1 ****  0
   43 C31       -5.6510     9.3378    -7.3572 C.2        1 ****  0
   44 O7        -6.7008     8.7533    -7.6472 O.2        1 ****  0
   45 N5        -4.6427     9.4688    -8.3090 N.am       1 ****  0
   46 C32       -4.8265     8.9291    -9.6232 C.3        1 ****  0
   47 H1         2.1313     1.1470     0.0990 H          1 ****  0
   48 H2         1.2818     0.5060    -1.3482 H          1 ****  0
   49 H3        -0.0210     2.3831    -0.4660 H          1 ****  0
   50 H4         0.0069     1.6856     1.1852 H          1 ****  0
   51 H5        -2.0669    -1.1724    -0.5000 H          1 ****  0
   52 H6        -1.4882    -0.8598     1.1670 H          1 ****  0
   53 H7         0.0754    -2.4166     0.1336 H          1 ****  0
   54 H8         0.2131    -1.3943    -1.3336 H          1 ****  0
   55 H9        -1.4242     3.2546    -0.7321 H          1 ****  0
   56 H10       -3.9355     2.9963    -2.0687 H          1 ****  0
   57 H11       -5.4819     3.9418    -0.3714 H          1 ****  0
   58 H12       -4.8884     2.3261     0.0663 H          1 ****  0
   59 H13       -2.1191     4.3956     0.6311 H          1 ****  0
   60 H14       -6.0359     3.5308     2.2166 H          1 ****  0
   61 H15       -1.3903     5.2008     2.8721 H          1 ****  0
   62 H16       -5.3070     4.3358     4.4564 H          1 ****  0
   63 H17       -2.9839     5.1708     4.7840 H          1 ****  0
   64 H18       -5.2298     5.4868    -1.7043 H          1 ****  0
   65 H19       -3.5469     7.6806    -1.2605 H          1 ****  0
   66 H20       -2.0490     6.8115    -3.0308 H          1 ****  0
   67 H21       -2.8338     8.3335    -3.5756 H          1 ****  0
   68 H22       -3.7570     5.4823    -4.2759 H          1 ****  0
   69 H23       -4.5480     7.0021    -4.8178 H          1 ****  0
   70 H24       -2.4143     7.6892    -5.9454 H          1 ****  0
   71 H25       -1.6621     6.1380    -5.4401 H          1 ****  0
   72 H26       -4.1582     6.4299    -7.2143 H          1 ****  0
   73 H27       -3.4069     4.8790    -6.7084 H          1 ****  0
   74 H28       -2.5102     6.0024    -7.7842 H          1 ****  0
   75 H29       -4.3137     9.6743    -3.1402 H          1 ****  0
   76 H30       -7.3446     9.5249    -3.0461 H          1 ****  0
   77 H31       -5.4788    11.7994    -3.8430 H          1 ****  0
   78 H32       -5.9471    11.4900    -2.1816 H          1 ****  0
   79 H33       -7.2868    13.2198    -2.9280 H          1 ****  0
   80 H34       -8.5449    11.3945    -1.6938 H          1 ****  0
   81 H35       -9.1104    10.7598    -3.2766 H          1 ****  0
   82 H36       -7.0263    13.0966    -5.3500 H          1 ****  0
   83 H37       -8.2213    11.7568    -5.4186 H          1 ****  0
   84 H38      -10.8296    12.2477    -2.2442 H          1 ****  0
   85 H39       -9.6355    13.5882    -2.1818 H          1 ****  0
   86 H40       -9.3113    13.9512    -5.9023 H          1 ****  0
   87 H41       -8.7478    14.5818    -4.3175 H          1 ****  0
   88 H42      -11.1165    13.7993    -4.1833 H          1 ****  0
   89 H43      -10.6086    12.1661    -4.7316 H          1 ****  0
   90 H44       -7.8616    10.8881    -5.4909 H          1 ****  0
   91 H45       -7.4281     7.6499    -4.5563 H          1 ****  0
   92 H46       -3.7661     9.9531    -8.0683 H          1 ****  0
   93 H47       -5.7484     9.3980    -9.9975 H          1 ****  0
   94 H48       -5.0465     7.8629    -9.4652 H          1 ****  0
   95 H49       -3.9719     9.0859   -10.2978 H          1 ****  0
@<TRIPOS>BOND
    1     1     2 1
    2     1     6 1
    3     2     3 1
    4     2    47 1
    5     2    48 1
    6     3     4 1
    7     3    49 1
    8     3    50 1
    9     4     5 1
   10     4     7 am
   11     5     6 1
   12     5    51 1
   13     5    52 1
   14     6    53 1
   15     6    54 1
   16     7     8 2
   17     7     9 am
   18     9    55 1
   19    10     9 1
   20    10    11 1
   21    10    13 1
   22    10    56 1
   23    11    12 2
   24    11    20 am
   25    13    14 1
   26    13    57 1
   27    13    58 1
   28    14    15 ar
   29    14    16 ar
   30    15    17 ar
   31    15    59 1
   32    16    18 ar
   33    16    60 1
   34    17    19 ar
   35    17    61 1
   36    18    19 ar
   37    18    62 1
   38    19    63 1
   39    20    64 1
   40    21    20 1
   41    21    22 1
   42    21    24 1
   43    21    65 1
   44    22    23 2
   45    22    28 am
   46    24    25 1
   47    24    66 1
   48    24    67 1
   49    25    26 1
   50    25    68 1
   51    25    69 1
   52    26    27 1
   53    26    70 1
   54    26    71 1
   55    27    72 1
   56    27    73 1
   57    27    74 1
   58    28    75 1
   59    29    28 1
   60    29    30 1
   61    29    37 1
   62    29    76 1
   63    30    31 1
   64    30    77 1
   65    30    78 1
   66    31    32 1
   67    31    33 1
   68    31    79 1
   69    32    34 1
   70    32    80 1
   71    32    81 1
   72    33    35 1
   73    33    82 1
   74    33    83 1
   75    34    36 1
   76    34    84 1
   77    34    85 1
   78    35    36 1
   79    35    86 1
   80    35    87 1
   81    36    88 1
   82    36    89 1
   83    37    38 1
   84    37    39 1
   85    37    40 1
   86    38    90 1
   87    39    91 1
   88    40    41 1
   89    40    42 1
   90    40    43 1
   91    43    44 2
   92    43    45 am
   93    45    46 1
   94    45    92 1
   95    46    93 1
   96    46    94 1
   97    46    95 1
@<TRIPOS>SUBSTRUCTURE
1   ****   1
@<TRIPOS>MOLECULE
1eta
35  36  1  0  0
SMALL
FORMAL_CHARGES
@<TRIPOS>ATOM
    1 C1         1.3968    -0.6519    -0.0530 C.ar       1 ****  0
    2 C2         0.3086    -1.4897    -0.0247 C.ar       1 ****  0
    3 C3        -0.9952    -1.0309    -0.0038 C.ar       1 ****  0
    4 C4        -1.2407     0.3678    -0.0063 C.ar       1 ****  0
    5 C5        -0.1174     1.2039    -0.0321 C.ar       1 ****  0
    6 C6         1.1847     0.7151    -0.0630 C.ar       1 ****  0
    7 C7         2.7429    -1.2959    -0.1059 C.3        1 ****  0
    8 C8         3.8896    -1.1748     0.9154 C.3        1 ****  0
    9 C9         5.1526    -1.1817     0.0590 C.2        1 ****  0.0000
   10 C10       -3.8704     0.7124    -0.0042 C.ar       1 ****  0
   11 C11       -4.9184     1.6300    -0.0594 C.ar       1 ****  0
   12 C12       -6.2450     1.1976    -0.1132 C.ar       1 ****  0
   13 C13       -6.5360    -0.1659    -0.1029 C.ar       1 ****  0
   14 C14       -5.4975    -1.0753    -0.0219 C.ar       1 ****  0
   15 C15       -4.1935    -0.6216     0.0222 C.ar       1 ****  0
   16 N1         3.8377     0.2091     1.5288 N.4        1 ****  1
   17 O1        -2.5145     1.1802    -0.0045 O.3        1 ****  0
   18 O2        -7.8397    -0.6659    -0.1754 O.3        1 ****  0
   19 O3         6.2308    -0.7337     0.4592 O.co2      1 ****  -0.50
   20 O4         5.0799    -2.4490    -0.4337 O.co2      1 ****  -0.50
   21 I1        -2.2613    -2.6752     0.0146 I          1 ****  0
   22 I2        -7.7616     2.6021    -0.1948 I          1 ****  0
   23 I3        -0.3938     3.2477    -0.0417 I          1 ****  0
   24 I4        -5.8826    -3.0990     0.0005 I          1 ****  0
   25 H1         0.4780    -2.5462    -0.0185 H          1 ****  0
   26 H2         2.0143     1.3901    -0.0941 H          1 ****  0
   27 H3         2.8814    -1.7463    -1.0914 H          1 ****  0
   28 H4         2.7687    -2.1219     0.6127 H          1 ****  0
   29 H5         3.8721    -1.9854     1.6554 H          1 ****  0
   30 H6        -4.7037     2.6782    -0.0606 H          1 ****  0
   31 H7        -3.4024    -1.3398     0.0792 H          1 ****  0
   32 H8         3.8302    -0.5518     2.2204 H          1 ****  0
   33 H9         2.9897     0.7711     1.6340 H          1 ****  0
   34 H10        4.6596     0.8053     1.6831 H          1 ****  0
   35 H11       -8.4882     0.0547    -0.2410 H          1 ****  0
@<TRIPOS>BOND
    1     1     2 ar
    2     1     6 ar
    3     1     7 1
    4     2     3 ar
    5     2    25 1
    6     3     4 ar
    7     3    21 1
    8     4     5 ar
    9     4    17 1
   10     5     6 ar
   11     5    23 1
   12     6    26 1
   13     7     8 1
   14     7    27 1
   15     7    28 1
   16     8     9 1
   17     8    16 1
   18     8    29 1
   19     9    19 ar
   20     9    20 ar
   21    10    11 ar
   22    10    15 ar
   23    10    17 1
   24    11    12 ar
   25    11    30 1
   26    12    13 ar
   27    12    22 1
   28    13    14 ar
   29    13    18 1
   30    14    15 ar
   31    14    24 1
   32    15    31 1
   33    16    32 1
   34    16    33 1
   35    16    34 1
   36    18    35 1
@<TRIPOS>SUBSTRUCTURE
1   ****   1
@<TRIPOS>MOLECULE
1etr
71  73  1  0  0
SMALL
FORMAL_CHARGES
@<TRIPOS>ATOM
    1 S1        -2.3910    -3.1076    -0.5778 S.O2       1 ****  0
    2 O1        -1.8036    -3.4041    -1.9442 O.2        1 ****  0
    3 O2        -1.5282    -3.7619     0.4846 O.2        1 ****  0
    4 C1         1.2306    -0.6862     0.2455 C.3        1 ****  0
    5 C2         1.1730     0.6961    -0.3830 C.3        1 ****  0
    6 C3         0.0396     1.4488     0.3024 C.3        1 ****  0
    7 C4        -1.2272     0.6871     0.1139 C.ar       1 ****  0
    8 C5        -2.4342     1.3768     0.1077 C.ar       1 ****  0
    9 C6        -3.6275     0.6973    -0.0995 C.ar       1 ****  0
   10 C7        -3.6122    -0.6740    -0.3174 C.ar       1 ****  0
   11 C8        -2.4064    -1.3637    -0.3130 C.ar       1 ****  0
   12 C9        -1.2104    -0.6911    -0.0888 C.ar       1 ****  0
   13 C10        2.4957     1.4387    -0.1162 C.3        1 ****  0
   14 N1         0.0189    -1.4664    -0.0818 N.pl3      1 ****  0
   15 N2        -3.9872    -3.7156    -0.5049 N.am       1 ****  0
   16 C11       -4.2372    -5.1169    -0.7043 C.3        1 ****  0
   17 C12       -5.7281    -5.3606    -0.7401 C.2        1 ****  0
   18 O3        -6.4984    -4.4480    -0.4216 O.2        1 ****  0
   19 C13       -3.5928    -5.9096     0.4541 C.3        1 ****  0
   20 C14       -4.2054    -5.4594     1.7907 C.3        1 ****  0
   21 C15       -3.5437    -6.2465     2.9323 C.3        1 ****  0
   22 N3        -4.1060    -5.8463     4.1877 N.3        1 ****  0
   23 C16       -3.6393    -6.4255     5.3678 C.2        1 ****  0
   24 N4        -4.1362    -6.0822     6.4857 N.2        1 ****  1
   25 N5        -2.6249    -7.3838     5.3187 N.3        1 ****  0
   26 N6        -6.2616    -6.5963    -1.1684 N.am       1 ****  0
   27 C17       -7.1901    -7.7227    -1.4397 C.3        1 ****  0
   28 C18       -8.1575    -7.2079    -2.5554 C.3        1 ****  0
   29 C19       -7.2087    -7.6139    -3.7145 C.3        1 ****  0
   30 C20       -5.8700    -8.0636    -3.0713 C.3        1 ****  0
   31 C21       -5.4024    -7.6372    -1.6665 C.3        1 ****  0
   32 C22       -8.0340    -7.8608    -0.1591 C.2        1 ****  0.0000
   33 O4        -7.5772    -9.0006    -0.3005 O.co2      1 ****  -0.50
   34 O5        -8.8533    -7.5818     0.8876 O.co2      1 ****  -0.50
   35 C23       -7.8369    -8.8750    -4.4082 C.3        1 ****  0
   36 H1         2.1168    -1.2191    -0.1296 H          1 ****  0
   37 H2         1.3127    -0.5864     1.3379 H          1 ****  0
   38 H3         1.0130     0.6265    -1.4691 H          1 ****  0
   39 H4         0.2563     1.5420     1.3768 H          1 ****  0
   40 H5        -0.0628     2.4487    -0.1444 H          1 ****  0
   41 H6        -2.4440     2.4651     0.2675 H          1 ****  0
   42 H7        -4.5821     1.2439    -0.0910 H          1 ****  0
   43 H8        -4.5543    -1.2138    -0.4933 H          1 ****  0
   44 H9         3.3301     0.8717    -0.5548 H          1 ****  0
   45 H10        2.6498     1.5360     0.9686 H          1 ****  0
   46 H11        2.4541     2.4393    -0.5712 H          1 ****  0
   47 H12        0.0435    -2.4753    -0.2877 H          1 ****  0
   48 H13       -4.7722    -3.0757    -0.3176 H          1 ****  0
   49 H14       -3.8011    -5.4481    -1.6583 H          1 ****  0
   50 H15       -3.7781    -6.9843     0.3104 H          1 ****  0
   51 H16       -2.5087    -5.7241     0.4679 H          1 ****  0
   52 H17       -4.0262    -4.3836     1.9340 H          1 ****  0
   53 H18       -5.2873    -5.6582     1.7864 H          1 ****  0
   54 H19       -3.7147    -7.3227     2.7821 H          1 ****  0
   55 H20       -2.4620    -6.0470     2.9368 H          1 ****  0
   56 H21       -4.8504    -5.1352     4.2188 H          1 ****  0
   57 H22       -3.7899    -6.5113     7.3557 H          1 ****  0
   58 H23       -4.8847    -5.3755     6.5222 H          1 ****  0
   59 H24       -2.2217    -7.6629     4.4130 H          1 ****  0
   60 H25       -2.2797    -7.8120     6.1895 H          1 ****  0
   61 H26       -6.6934    -8.6606    -1.7290 H          1 ****  0
   62 H27       -7.9891    -6.3834    -3.2639 H          1 ****  0
   63 H28       -9.2292    -7.4539    -2.5250 H          1 ****  0
   64 H29       -7.0570    -6.7839    -4.4203 H          1 ****  0
   65 H30       -5.2826    -8.9312    -3.4064 H          1 ****  0
   66 H31       -5.7315    -7.2284    -3.7737 H          1 ****  0
   67 H32       -4.3691    -7.2641    -1.7223 H          1 ****  0
   68 H33       -5.4430    -8.5029    -0.9890 H          1 ****  0
   69 H34       -7.6752    -8.0535    -5.1216 H          1 ****  0
   70 H35       -8.9079    -9.1234    -4.3721 H          1 ****  0
   71 H36       -7.2679    -9.7585    -4.7334 H          1 ****  0
@<TRIPOS>BOND
    1     1     2 2
    2     1     3 2
    3     1    11 1
    4     1    15 am
    5     4     5 1
    6     4    14 1
    7     4    36 1
    8     4    37 1
    9     5     6 1
   10     5    13 1
   11     5    38 1
   12     6     7 1
   13     6    39 1
   14     6    40 1
   15     7     8 ar
   16     7    12 ar
   17     8     9 ar
   18     8    41 1
   19     9    10 ar
   20     9    42 1
   21    10    11 ar
   22    10    43 1
   23    11    12 ar
   24    12    14 1
   25    13    44 1
   26    13    45 1
   27    13    46 1
   28    14    47 1
   29    15    48 1
   30    16    15 1
   31    16    17 1
   32    16    19 1
   33    16    49 1
   34    17    18 2
   35    17    26 am
   36    19    20 1
   37    19    50 1
   38    19    51 1
   39    20    21 1
   40    20    52 1
   41    20    53 1
   42    21    22 1
   43    21    54 1
   44    21    55 1
   45    22    23 1
   46    22    56 1
   47    23    24 2
   48    23    25 1
   49    24    57 1
   50    24    58 1
   51    25    59 1
   52    25    60 1
   53    26    27 1
   54    26    31 1
   55    27    28 1
   56    27    32 1
   57    27    61 1
   58    28    29 1
   59    28    62 1
   60    28    63 1
   61    29    30 1
   62    29    35 1
   63    29    64 1
   64    30    31 1
   65    30    65 1
   66    30    66 1
   67    31    67 1
   68    31    68 1
   69    32    33 ar
   70    32    34 ar
   71    35    69 1
   72    35    70 1
   73    35    71 1
@<TRIPOS>SUBSTRUCTURE
1   ****   1
@<TRIPOS>MOLECULE
1ets
69  72  1  0  0
SMALL
FORMAL_CHARGES
@<TRIPOS>ATOM
    1 S1         2.7096     1.5712    -0.0001 S.O2       1 ****  0
    2 O1         2.7455     2.5133    -1.1881 O.2        1 ****  0
    3 O2         2.8217     2.3823     1.2767 O.2        1 ****  0
    4 C1         1.1858    -0.7029    -0.0003 C.ar       1 ****  0
    5 C2         1.1822     0.6865    -0.0001 C.ar       1 ****  0
    6 C3        -0.0225     1.3795     0.0001 C.ar       1 ****  0
    7 C4        -1.2247     0.6827     0.0001 C.ar       1 ****  0
    8 C5        -2.4230    -1.4038    -0.0002 C.ar       1 ****  0
    9 C6        -2.4194    -2.7935    -0.0004 C.ar       1 ****  0
   10 C7        -1.2143    -3.4859    -0.0006 C.ar       1 ****  0
   11 C8        -0.0123    -2.7889    -0.0006 C.ar       1 ****  0
   12 C9        -0.0161    -1.3994    -0.0003 C.ar       1 ****  0
   13 C10       -1.2211    -0.7069    -0.0001 C.ar       1 ****  0
   14 N1         4.0193     0.4840    -0.0982 N.am       1 ****  0
   15 C11        5.3562     0.9870     0.0269 C.3        1 ****  0
   16 C12        6.3527    -0.1146    -0.1846 C.2        1 ****  0
   17 O3         5.9672    -1.2651    -0.4219 O.2        1 ****  0
   18 C13        8.7015    -0.8508    -0.3358 C.3        1 ****  0
   19 C14        8.5559    -1.4124    -1.7509 C.2        1 ****  0
   20 O4         8.4625    -2.6362    -1.8963 O.2        1 ****  0
   21 N2         7.7190     0.1713    -0.1029 N.am       1 ****  0
   22 C15       10.1131    -0.2360    -0.1153 C.3        1 ****  0
   23 C16       11.2125    -1.2682    -0.2031 C.ar       1 ****  0
   24 C17       10.9194    -2.6256    -0.1397 C.ar       1 ****  0
   25 C18       12.5346    -0.8452    -0.2751 C.ar       1 ****  0
   26 C19       11.9482    -3.5597    -0.1491 C.ar       1 ****  0
   27 C20       13.5635    -1.7793    -0.2845 C.ar       1 ****  0
   28 C21       13.2700    -3.1363    -0.2215 C.ar       1 ****  0
   29 C22       14.3556    -4.1219    -0.2314 C.2        1 ****  0
   30 N3        14.0870    -5.3632    -0.1737 N.2        1 ****  1
   31 N4        15.6850    -3.6996    -0.3041 N.3        1 ****  0
   32 N5         8.5211    -0.5879    -2.9090 N.am       1 ****  0
   33 C23        8.5972     0.8446    -2.8205 C.3        1 ****  0
   34 C24        7.4212     1.4714    -3.5923 C.3        1 ****  0
   35 C25        7.4115     0.9252    -5.0301 C.3        1 ****  0
   36 C26        7.2273    -0.6006    -4.9687 C.3        1 ****  0
   37 C27        8.4038    -1.2219    -4.1932 C.3        1 ****  0
   38 H1         2.1396    -1.2509    -0.0004 H          1 ****  0
   39 H2        -0.0243     2.4795     0.0003 H          1 ****  0
   40 H3        -2.1785     1.2306     0.0003 H          1 ****  0
   41 H4        -3.3769    -0.8560     0.0000 H          1 ****  0
   42 H5        -3.3707    -3.3457    -0.0004 H          1 ****  0
   43 H6        -1.2122    -4.5859    -0.0008 H          1 ****  0
   44 H7         0.9416    -3.3366    -0.0007 H          1 ****  0
   45 H8         3.8523    -0.5216    -0.2456 H          1 ****  0
   46 H9         5.5204     1.7749    -0.7229 H          1 ****  0
   47 H10        5.4933     1.4133     1.0316 H          1 ****  0
   48 H11        8.5563    -1.6856     0.3656 H          1 ****  0
   49 H12        8.0251     1.1274     0.1273 H          1 ****  0
   50 H13       10.2897     0.5404    -0.8743 H          1 ****  0
   51 H14       10.1480     0.2403     0.8757 H          1 ****  0
   52 H15        9.8731    -2.9603    -0.0821 H          1 ****  0
   53 H16       12.7665     0.2289    -0.3247 H          1 ****  0
   54 H17       11.7165    -4.6339    -0.0992 H          1 ****  0
   55 H18       14.6098    -1.4448    -0.3418 H          1 ****  0
   56 H19       13.1072    -5.6765    -0.1200 H          1 ****  0
   57 H20       14.8494    -6.0557    -0.1806 H          1 ****  0
   58 H21       15.9027    -2.6939    -0.3508 H          1 ****  0
   59 H22       16.4469    -4.3926    -0.3109 H          1 ****  0
   60 H23        8.5464     1.1499    -1.7649 H          1 ****  0
   61 H24        9.5463     1.1900    -3.2564 H          1 ****  0
   62 H25        7.5374     2.5650    -3.6164 H          1 ****  0
   63 H26        6.4751     1.2117    -3.0948 H          1 ****  0
   64 H27        6.5785     1.3748    -5.5904 H          1 ****  0
   65 H28        8.3662     1.1615    -5.5226 H          1 ****  0
   66 H29        7.2038    -1.0103    -5.9892 H          1 ****  0
   67 H30        6.2838    -0.8365    -4.4546 H          1 ****  0
   68 H31        8.2241    -2.2985    -4.0566 H          1 ****  0
   69 H32        9.3345    -1.0751    -4.7609 H          1 ****  0
@<TRIPOS>BOND
    1     1     2 2
    2     1     3 2
    3     1     5 1
    4     1    14 am
    5     4     5 ar
    6     4    12 ar
    7     4    38 1
    8     5     6 ar
    9     6     7 ar
   10     6    39 1
   11     7    13 ar
   12     7    40 1
   13     8     9 ar
   14     8    13 ar
   15     8    41 1
   16     9    10 ar
   17     9    42 1
   18    10    11 ar
   19    10    43 1
   20    11    12 ar
   21    11    44 1
   22    12    13 ar
   23    14    15 1
   24    14    45 1
   25    15    16 1
   26    15    46 1
   27    15    47 1
   28    16    17 2
   29    16    21 am
   30    18    19 1
   31    18    21 1
   32    18    22 1
   33    18    48 1
   34    19    20 2
   35    19    32 am
   36    21    49 1
   37    22    23 1
   38    22    50 1
   39    22    51 1
   40    23    24 ar
   41    23    25 ar
   42    24    26 ar
   43    24    52 1
   44    25    27 ar
   45    25    53 1
   46    26    28 ar
   47    26    54 1
   48    27    28 ar
   49    27    55 1
   50    28    29 1
   51    29    30 2
   52    29    31 1
   53    30    56 1
   54    30    57 1
   55    31    58 1
   56    31    59 1
   57    32    33 1
   58    32    37 1
   59    33    34 1
   60    33    60 1
   61    33    61 1
   62    34    35 1
   63    34    62 1
   64    34    63 1
   65    35    36 1
   66    35    64 1
   67    35    65 1
   68    36    37 1
   69    36    66 1
   70    36    67 1
   71    37    68 1
   72    37    69 1
@<TRIPOS>SUBSTRUCTURE
1   ****   1
@<TRIPOS>MOLECULE
1ett
59  61  1  0  0
SMALL
FORMAL_CHARGES
@<TRIPOS>ATOM
    1 S1         2.7028    -1.5604    -0.0002 S.O2       1 ****  0
    2 O1         2.7620    -2.4598     1.2197 O.2        1 ****  0
    3 O2         2.7874    -2.4170    -1.2489 O.2        1 ****  0
    4 C1         1.1752    -0.6789    -0.0001 C.ar       1 ****  0
    5 C2         1.1761     0.7109     0.0001 C.ar       1 ****  0
    6 C3        -0.0272     1.4058     0.0001 C.ar       1 ****  0
    7 C4        -1.2306     0.7104    -0.0001 C.ar       1 ****  0
    8 C5        -1.2316    -0.6794    -0.0003 C.ar       1 ****  0
    9 C6        -0.0281    -1.3743    -0.0003 C.ar       1 ****  0
   10 C7        -2.5274     1.4601    -0.0001 C.3        1 ****  0
   11 C8         5.3313    -0.9606     0.2978 C.3        1 ****  0
   12 C9         5.3939    -1.4956     1.7258 C.2        1 ****  0
   13 O3         5.7474    -2.6661     1.9050 O.2        1 ****  0
   14 N1         4.0120    -0.4676     0.0216 N.am       1 ****  0
   15 C10        6.3779     0.1633     0.0590 C.3        1 ****  0
   16 C11        7.7915    -0.3599     0.1786 C.ar       1 ****  0
   17 C12        8.0483    -1.7255     0.1450 C.ar       1 ****  0
   18 C13        8.8454     0.5440     0.2492 C.ar       1 ****  0
   19 C14        9.3584    -2.1874     0.1827 C.ar       1 ****  0
   20 C15       10.1555     0.0822     0.2869 C.ar       1 ****  0
   21 C16       10.4117    -1.2833     0.2537 C.ar       1 ****  0
   22 C17       11.7941    -1.7707     0.2935 C.2        1 ****  0
   23 N2        12.8548    -0.8647     0.3649 N.3        1 ****  0
   24 N3        12.0282    -3.0199     0.2631 N.2        1 ****  1
   25 N4         5.0311    -0.7156     2.8571 N.am       1 ****  0
   26 C18        4.5687     0.6387     2.7243 C.3        1 ****  0
   27 C19        5.3919     1.5565     3.6471 C.3        1 ****  0
   28 C20        5.3407     1.0073     5.0829 C.3        1 ****  0
   29 C21        5.9541    -0.4031     5.0855 C.3        1 ****  0
   30 C22        5.1294    -1.3157     4.1589 C.3        1 ****  0
   31 H1         2.1289     1.2606     0.0003 H          1 ****  0
   32 H2        -0.0274     2.5058     0.0003 H          1 ****  0
   33 H3        -2.1845    -1.2290    -0.0005 H          1 ****  0
   34 H4        -0.0280    -2.4743    -0.0005 H          1 ****  0
   35 H5        -2.4809     2.1116    -0.8852 H          1 ****  0
   36 H6        -2.4811     2.1113     0.8853 H          1 ****  0
   37 H7        -3.4167     0.8127    -0.0002 H          1 ****  0
   38 H8         5.5685    -1.7899    -0.3848 H          1 ****  0
   39 H9         3.8577     0.5342    -0.1612 H          1 ****  0
   40 H10        6.2261     0.9635     0.7983 H          1 ****  0
   41 H11        6.2333     0.5845    -0.9468 H          1 ****  0
   42 H12        7.2144    -2.4407     0.0885 H          1 ****  0
   43 H13        8.6422     1.6248     0.2752 H          1 ****  0
   44 H14        9.5618    -3.2681     0.1565 H          1 ****  0
   45 H15       10.9895     0.7972     0.3431 H          1 ****  0
   46 H16       12.6651     0.1474     0.3895 H          1 ****  0
   47 H17       13.8255    -1.2079     0.3928 H          1 ****  0
   48 H18       12.9989    -3.3632     0.2910 H          1 ****  0
   49 H19       11.2468    -3.6889     0.2105 H          1 ****  0
   50 H20        4.6882     0.9664     1.6811 H          1 ****  0
   51 H21        3.5069     0.6940     3.0062 H          1 ****  0
   52 H22        4.9703     2.5723     3.6279 H          1 ****  0
   53 H23        6.4360     1.5838     3.3019 H          1 ****  0
   54 H24        5.9201     1.6626     5.7499 H          1 ****  0
   55 H25        4.2957     0.9554     5.4225 H          1 ****  0
   56 H26        5.9396    -0.8093     6.1077 H          1 ****  0
   57 H27        6.9914    -0.3534     4.7229 H          1 ****  0
   58 H28        5.6233    -2.2951     4.0760 H          1 ****  0
   59 H29        4.1213    -1.4483     4.5785 H          1 ****  0
@<TRIPOS>BOND
    1     1     2 2
    2     1     3 2
    3     1     4 1
    4     1    14 am
    5     4     5 ar
    6     4     9 ar
    7     5     6 ar
    8     5    31 1
    9     6     7 ar
   10     6    32 1
   11     7     8 ar
   12     7    10 1
   13     8     9 ar
   14     8    33 1
   15     9    34 1
   16    10    35 1
   17    10    36 1
   18    10    37 1
   19    11    12 1
   20    11    14 1
   21    11    15 1
   22    11    38 1
   23    12    13 2
   24    12    25 am
   25    14    39 1
   26    15    16 1
   27    15    40 1
   28    15    41 1
   29    16    17 ar
   30    16    18 ar
   31    17    19 ar
   32    17    42 1
   33    18    20 ar
   34    18    43 1
   35    19    21 ar
   36    19    44 1
   37    20    21 ar
   38    20    45 1
   39    21    22 1
   40    22    23 1
   41    22    24 2
   42    23    46 1
   43    23    47 1
   44    24    48 1
   45    24    49 1
   46    25    26 1
   47    25    30 1
   48    26    27 1
   49    26    50 1
   50    26    51 1
   51    27    28 1
   52    27    52 1
   53    27    53 1
   54    28    29 1
   55    28    54 1
   56    28    55 1
   57    29    30 1
   58    29    56 1
   59    29    57 1
   60    30    58 1
   61    30    59 1
@<TRIPOS>SUBSTRUCTURE
1   ****   1
@<TRIPOS>MOLECULE
1f0r
51  55  1  0  0
SMALL
FORMAL_CHARGES
@<TRIPOS>ATOM
    1 C1         1.1975    -0.6946    -0.0001 C.ar       1 ****  0
    2 C2         1.1956     0.6952     0.0001 C.ar       1 ****  0
    3 C3        -0.0122     1.3814     0.0001 C.ar       1 ****  0
    4 C4        -1.2118     0.6868    -0.0001 C.ar       1 ****  0
    5 C5        -1.2118    -0.7024    -0.0003 C.ar       1 ****  0
    6 C6        -0.0051    -1.3924    -0.0003 C.ar       1 ****  0
    7 C7        -0.0411     2.7679     0.0003 C.ar       1 ****  0
    8 C8        -1.2708     3.4155     0.0002 C.ar       1 ****  0
    9 N1        -2.4051     2.7221     0.0001 N.ar       1 ****  1
   10 C9        -2.4084     1.3930    -0.0001 C.ar       1 ****  0
   11 C10        4.0397    -5.4830    -6.4066 C.ar       1 ****  0
   12 C11        4.3891    -5.4233    -7.7444 C.ar       1 ****  0
   13 C12        4.8566    -6.6037    -8.3113 C.ar       1 ****  0
   14 C13        4.9520    -7.7613    -7.5371 C.ar       1 ****  0
   15 N2         4.6036    -7.7708    -6.2517 N.ar       1 ****  0
   16 C14        4.1549    -6.6575    -5.6888 C.ar       1 ****  0
   17 C15        3.7581    -6.5294    -4.3597 C.ar       1 ****  0
   18 C16        3.3474    -5.2243    -4.1217 C.ar       1 ****  0
   19 S1         3.4496    -4.2300    -5.4610 S.3        1 ****  0
   20 N3         1.2609    -3.7514    -0.0019 N.am       1 ****  0
   21 C17        1.1779    -5.1155    -0.0012 C.2        1 ****  0
   22 C18        2.5263    -5.7356    -0.0088 C.3        1 ****  0
   23 C19        3.3389    -4.5322     0.5617 C.3        1 ****  0
   24 C20        2.6014    -3.2755    -0.0011 C.3        1 ****  0
   25 N4         2.8903    -5.9227    -1.4008 N.am       1 ****  0
   26 S2         2.7588    -4.6557    -2.5529 S.O2       1 ****  0
   27 O1         3.5875    -3.4610    -2.1200 O.2        1 ****  0
   28 O2         1.3113    -4.2268    -2.7017 O.2        1 ****  0
   29 O3         0.1248    -5.7524    -0.1035 O.2        1 ****  0
   30 N5        -3.6497     0.6860    -0.0002 N.pl3      1 ****  0
   31 C21        0.0036    -2.9449    -0.0006 C.3        1 ****  0
   32 H1         2.1511    -1.2429    -0.0002 H          1 ****  0
   33 H2         2.1460     1.2491     0.0002 H          1 ****  0
   34 H3        -2.1633    -1.2543    -0.0004 H          1 ****  0
   35 H4         0.8947     3.3461     0.0004 H          1 ****  0
   36 H5        -1.3060     4.5149     0.0003 H          1 ****  0
   37 H6        -3.3029     3.2270     0.0000 H          1 ****  0
   38 H7         4.3018    -4.4940    -8.3266 H          1 ****  0
   39 H8         5.1516    -6.6254    -9.3708 H          1 ****  0
   40 H9         5.3236    -8.6875    -7.9996 H          1 ****  0
   41 H10        3.7685    -7.3376    -3.6136 H          1 ****  0
   42 H11        2.6497    -6.6912     0.5218 H          1 ****  0
   43 H12        4.3734    -4.5617     0.1889 H          1 ****  0
   44 H13        3.2973    -4.5342     1.6609 H          1 ****  0
   45 H14        2.7154    -2.4255     0.6878 H          1 ****  0
   46 H15        2.9406    -3.0601    -1.0251 H          1 ****  0
   47 H16        3.2379    -6.8426    -1.7071 H          1 ****  0
   48 H17       -3.6585    -0.3440    -0.0003 H          1 ****  0
   49 H18       -4.5378     1.2078    -0.0002 H          1 ****  0
   50 H19       -0.5930    -3.2772    -0.8629 H          1 ****  0
   51 H20       -0.5911    -3.2766     0.8634 H          1 ****  0
@<TRIPOS>BOND
    1     1     2 ar
    2     1     6 ar
    3     1    32 1
    4     2     3 ar
    5     2    33 1
    6     3     4 ar
    7     3     7 ar
    8     4     5 ar
    9     4    10 ar
   10     5     6 ar
   11     5    34 1
   12     6    31 1
   13     7     8 ar
   14     7    35 1
   15     8     9 ar
   16     8    36 1
   17     9    10 ar
   18     9    37 1
   19    10    30 1
   20    11    12 ar
   21    11    16 ar
   22    11    19 ar
   23    12    13 ar
   24    12    38 1
   25    13    14 ar
   26    13    39 1
   27    14    15 ar
   28    14    40 1
   29    15    16 ar
   30    16    17 ar
   31    17    18 ar
   32    17    41 1
   33    18    19 ar
   34    18    26 1
   35    20    21 am
   36    20    24 1
   37    20    31 1
   38    21    22 1
   39    21    29 2
   40    22    23 1
   41    22    25 1
   42    22    42 1
   43    23    24 1
   44    23    43 1
   45    23    44 1
   46    24    45 1
   47    24    46 1
   48    25    26 am
   49    25    47 1
   50    26    27 2
   51    26    28 2
   52    30    48 1
   53    30    49 1
   54    31    50 1
   55    31    51 1
@<TRIPOS>SUBSTRUCTURE
1   ****   1
@<TRIPOS>MOLECULE
1f0s
46  50  1  0  0
SMALL
FORMAL_CHARGES
@<TRIPOS>ATOM
    1 C1         1.1645    -0.6847    -0.0001 C.ar       1 ****  0
    2 C2         1.2307     0.6977     0.0001 C.ar       1 ****  0
    3 C3         0.0144     1.3716     0.0001 C.ar       1 ****  0
    4 C4        -1.1826     0.6536    -0.0001 C.ar       1 ****  0
    5 N1        -1.1967    -0.6781    -0.0003 N.ar       1 ****  0
    6 C5        -0.0498    -1.3430    -0.0003 C.ar       1 ****  0
    7 C6         0.0780    -2.7301    -0.0006 C.ar       1 ****  0
    8 C7         1.4259    -3.0888    -0.0005 C.ar       1 ****  0
    9 S1         2.4544    -1.7565    -0.0001 S.3        1 ****  0
   10 N2         2.9181    -8.0006     0.5065 N.am       1 ****  0
   11 C8         1.6297    -7.7949     0.9200 C.2        1 ****  0
   12 C9         0.8029    -7.2545    -0.1752 C.3        1 ****  0
   13 C10        1.6435    -7.7163    -1.3867 C.3        1 ****  0
   14 C11        3.1140    -7.6429    -0.8649 C.3        1 ****  0
   15 N3         0.6428    -5.8174    -0.1064 N.am       1 ****  0
   16 S2         1.9911    -4.7587    -0.0011 S.O2       1 ****  0
   17 O1         2.9170    -4.9645    -1.1850 O.2        1 ****  0
   18 O2         2.7619    -5.0129     1.2806 O.2        1 ****  0
   19 O3         1.2469    -7.9345     2.0858 O.2        1 ****  0
   20 C12        4.0028    -8.4863     1.3906 C.3        1 ****  0
   21 C13        7.5249    -9.1823     1.0085 C.ar       1 ****  0
   22 C14        7.2848    -8.7784    -0.2769 C.ar       1 ****  0
   23 C15        8.2973    -8.7525    -1.2180 C.ar       1 ****  0
   24 C16        9.5545    -9.1591    -0.7719 C.ar       1 ****  0
   25 N4         9.7635    -9.5497     0.4907 N.ar       1 ****  0
   26 C17        8.7920    -9.5775     1.4043 C.ar       1 ****  0
   27 C18        5.9485    -8.4434    -0.3934 C.ar       1 ****  0
   28 C19        5.4639    -8.6814     0.8870 C.ar       1 ****  0
   29 N5         6.4057    -9.1213     1.7188 N.ar       1 ****  0
   30 H1         2.1915     1.2332     0.0003 H          1 ****  0
   31 H2        -0.0044     2.4714     0.0003 H          1 ****  0
   32 H3        -2.1369     1.2007    -0.0001 H          1 ****  0
   33 H4        -0.7624    -3.4398    -0.0008 H          1 ****  0
   34 H5        -0.2419    -7.5988    -0.1817 H          1 ****  0
   35 H6         1.5066    -7.0246    -2.2310 H          1 ****  0
   36 H7         1.3878    -8.7522    -1.6538 H          1 ****  0
   37 H8         3.7389    -8.3884    -1.3784 H          1 ****  0
   38 H9         3.4985    -6.6158    -0.9494 H          1 ****  0
   39 H10       -0.3067    -5.4185    -0.1210 H          1 ****  0
   40 H11        3.6704    -9.4438     1.8180 H          1 ****  0
   41 H12        4.0400    -7.8124     2.2592 H          1 ****  0
   42 H13        8.1219    -8.4308    -2.2552 H          1 ****  0
   43 H14       10.3981    -9.1587    -1.4779 H          1 ****  0
   44 H15        8.9903    -9.9030     2.4362 H          1 ****  0
   45 H16        5.4051    -8.0796    -1.2779 H          1 ****  0
   46 H17        6.2892    -9.3650     2.7127 H          1 ****  0
@<TRIPOS>BOND
    1     1     2 ar
    2     1     6 ar
    3     1     9 ar
    4     2     3 ar
    5     2    30 1
    6     3     4 ar
    7     3    31 1
    8     4     5 ar
    9     4    32 1
   10     5     6 ar
   11     6     7 ar
   12     7     8 ar
   13     7    33 1
   14     8     9 ar
   15     8    16 1
   16    10    11 am
   17    10    14 1
   18    10    20 1
   19    11    12 1
   20    11    19 2
   21    12    13 1
   22    12    15 1
   23    12    34 1
   24    13    14 1
   25    13    35 1
   26    13    36 1
   27    14    37 1
   28    14    38 1
   29    15    16 am
   30    15    39 1
   31    16    17 2
   32    16    18 2
   33    20    28 1
   34    20    40 1
   35    20    41 1
   36    21    22 ar
   37    21    26 ar
   38    21    29 ar
   39    22    23 ar
   40    22    27 ar
   41    23    24 ar
   42    23    42 1
   43    24    25 ar
   44    24    43 1
   45    25    26 ar
   46    26    44 1
   47    27    28 ar
   48    27    45 1
   49    28    29 ar
   50    29    46 1
@<TRIPOS>SUBSTRUCTURE
1   ****   1
@<TRIPOS>MOLECULE
1f3d
33  34  1  0  0
SMALL
FORMAL_CHARGES
@<TRIPOS>ATOM
    1 C1         1.2105    -0.6991    -0.0001 C.ar       1 ****  0
    2 C2         1.2112     0.6908     0.0001 C.ar       1 ****  0
    3 C3         0.0077     1.3858     0.0001 C.ar       1 ****  0
    4 C4        -1.1964    -0.6992    -0.0003 C.ar       1 ****  0
    5 C5         0.0070    -1.3941    -0.0003 C.ar       1 ****  0
    6 C6        -1.1957     0.6906    -0.0001 C.ar       1 ****  0
    7 C7        -2.4952     1.4403    -0.0001 C.3        1 ****  0
    8 N1         2.4471    -1.4139    -0.0001 N.pl3      1 ****  0
    9 N2        -2.2348     2.8887     0.0000 N.pl3      1 ****  0
   10 C8        -3.4785     3.6042     0.0002 C.2        1 ****  0
   11 N3        -4.5688     2.9287    -0.0002 N.2        1 ****  1
   12 C9        -3.4613     5.1167    -0.0001 C.3        1 ****  0
   13 C10       -4.8118     5.6812    -0.4325 C.3        1 ****  0
   14 C11       -5.8646     4.9927     0.4093 C.3        1 ****  0
   15 C12       -5.8940     3.5217    -0.0143 C.3        1 ****  0
   16 H1         2.1640     1.2405     0.0003 H          1 ****  0
   17 H2         0.0077     2.4858     0.0003 H          1 ****  0
   18 H3        -2.1492    -1.2490    -0.0004 H          1 ****  0
   19 H4         0.0070    -2.4941    -0.0004 H          1 ****  0
   20 H5        -3.0720     1.1729    -0.8977 H          1 ****  0
   21 H6        -3.0730     1.1732     0.8970 H          1 ****  0
   22 H7         3.3394    -0.8994     0.0001 H          1 ****  0
   23 H8         2.4465    -2.4439    -0.0002 H          1 ****  0
   24 H9        -1.3009     3.3232     0.0000 H          1 ****  0
   25 H10       -4.4999     1.9010     0.0101 H          1 ****  0
   26 H11       -2.6828     5.4713    -0.6916 H          1 ****  0
   27 H12       -3.2257     5.4768     1.0122 H          1 ****  0
   28 H13       -4.8388     6.7655    -0.2492 H          1 ****  0
   29 H14       -4.9849     5.4631    -1.4967 H          1 ****  0
   30 H15       -6.8476     5.4513     0.2263 H          1 ****  0
   31 H16       -5.5975     5.0673     1.4738 H          1 ****  0
   32 H17       -6.5471     2.9622     0.6716 H          1 ****  0
   33 H18       -6.3109     3.4472    -1.0295 H          1 ****  0
@<TRIPOS>BOND
    1     1     2 ar
    2     1     5 ar
    3     1     8 1
    4     2     3 ar
    5     2    16 1
    6     3     6 ar
    7     3    17 1
    8     4     5 ar
    9     4     6 ar
   10     4    18 1
   11     5    19 1
   12     6     7 1
   13     7     9 1
   14     7    20 1
   15     7    21 1
   16     8    22 1
   17     8    23 1
   18     9    10 1
   19     9    24 1
   20    10    11 2
   21    10    12 1
   22    11    15 1
   23    11    25 1
   24    12    13 1
   25    12    26 1
   26    12    27 1
   27    13    14 1
   28    13    28 1
   29    13    29 1
   30    14    15 1
   31    14    30 1
   32    14    31 1
   33    15    32 1
   34    15    33 1
@<TRIPOS>SUBSTRUCTURE
1   ****   1
@<TRIPOS>MOLECULE
1fax
62  65  1  0  0
SMALL
FORMAL_CHARGES
@<TRIPOS>ATOM
    1 C1         1.2063    -0.6979    -0.0001 C.ar       1 ****  0
    2 C2         1.2058     0.6917    -0.0000 C.ar       1 ****  0
    3 C3         0.0024     1.3868     0.0000 C.ar       1 ****  0
    4 C4        -1.2012     0.6922    -0.0001 C.ar       1 ****  0
    5 C5        -1.2007    -0.6971    -0.0002 C.ar       1 ****  0
    6 C6        -2.4044    -1.3912    -0.0004 C.ar       1 ****  0
    7 C7        -2.4045    -2.7807    -0.0005 C.ar       1 ****  0
    8 C8        -1.2010    -3.4757    -0.0005 C.ar       1 ****  0
    9 C9         0.0030    -2.7816    -0.0004 C.ar       1 ****  0
   10 C10        0.0028    -1.3923    -0.0002 C.ar       1 ****  0
   11 C11       -1.2018    -4.9421    -0.0006 C.2        1 ****  0
   12 N1        -2.3034    -5.5767    -0.0007 N.2        1 ****  1
   13 N2         0.0061    -5.6434    -0.0006 N.3        1 ****  0
   14 C12        2.5081     1.4435    -0.0033 C.3        1 ****  0
   15 C13        3.3577     0.2594    -2.0401 C.2        1 ****  0.0000
   16 O1         3.0235     1.1624    -2.8150 O.co2      1 ****  -0.50
   17 O2         3.4653    -1.0170    -2.4898 O.co2      1 ****  -0.50
   18 C14        3.5746     1.5150    -1.1663 C.3        1 ****  0
   19 N3         7.0716     4.7827     2.1885 N.2        1 ****  1
   20 C15        8.4681     4.4704     2.0660 C.3        1 ****  0
   21 C16        8.6616     4.6511     0.5642 C.3        1 ****  0
   22 C17        7.7676     5.8422     0.2719 C.3        1 ****  0
   23 C18        6.4981     5.4499     1.0528 C.3        1 ****  0
   24 C19        6.4019     4.5208     3.2370 C.2        1 ****  0
   25 N4         5.0170     4.8764     3.3045 N.3        1 ****  0
   26 C20        7.0564     3.8393     4.4076 C.3        1 ****  0
   27 C21        5.0361     2.4549     0.3034 C.ar       1 ****  0
   28 C22        6.2336     3.1565     0.3712 C.ar       1 ****  0
   29 C23        6.0251     0.9188    -1.2652 C.ar       1 ****  0
   30 C24        7.2227     1.6205    -1.1973 C.ar       1 ****  0
   31 C25        7.3265     2.7392    -0.3790 C.ar       1 ****  0
   32 O3         8.5649     3.4683    -0.3062 O.3        1 ****  0
   33 C26        4.9321     1.3366    -0.5146 C.ar       1 ****  0
   34 H1         2.1590    -1.2478    -0.0001 H          1 ****  0
   35 H2         0.0026     2.4868     0.0001 H          1 ****  0
   36 H3        -2.1539     1.2422    -0.0001 H          1 ****  0
   37 H4        -3.3569    -0.8410    -0.0004 H          1 ****  0
   38 H5        -3.3571    -3.3307    -0.0006 H          1 ****  0
   39 H6         0.9555    -3.3318    -0.0004 H          1 ****  0
   40 H7        -2.3047    -6.6067    -0.0008 H          1 ****  0
   41 H8        -3.1948    -5.0606    -0.0007 H          1 ****  0
   42 H9         0.8987    -5.1293    -0.0005 H          1 ****  0
   43 H10        0.0046    -6.6734    -0.0007 H          1 ****  0
   44 H11        2.7697     1.7239     1.0277 H          1 ****  0
   45 H12        2.3982     2.3582    -0.6044 H          1 ****  0
   46 H13        3.5101     2.4545    -1.7348 H          1 ****  0
   47 H14        8.6610     3.4264     2.3542 H          1 ****  0
   48 H15        9.0795     5.1968     2.6214 H          1 ****  0
   49 H16        9.7119     4.8358     0.2945 H          1 ****  0
   50 H17        7.5508     5.9081    -0.8045 H          1 ****  0
   51 H18        8.2039     6.7630     0.6863 H          1 ****  0
   52 H19        5.9493     6.3503     1.3663 H          1 ****  0
   53 H20        5.8859     4.7532     0.4613 H          1 ****  0
   54 H21        4.5637     5.3433     2.5061 H          1 ****  0
   55 H22        4.4730     4.6649     4.1532 H          1 ****  0
   56 H23        7.9065     4.4834     4.6770 H          1 ****  0
   57 H24        7.4682     2.9033     4.0023 H          1 ****  0
   58 H25        6.3754     3.6668     5.2540 H          1 ****  0
   59 H26        4.1707     2.7848     0.8970 H          1 ****  0
   60 H27        6.3165     4.0419     1.0186 H          1 ****  0
   61 H28        5.9420     0.0334    -1.9126 H          1 ****  0
   62 H29        8.0881     1.2908    -1.7909 H          1 ****  0
@<TRIPOS>BOND
    1     1     2 ar
    2     1    10 ar
    3     1    34 1
    4     2     3 ar
    5     2    14 1
    6     3     4 ar
    7     3    35 1
    8     4     5 ar
    9     4    36 1
   10     5     6 ar
   11     5    10 ar
   12     6     7 ar
   13     6    37 1
   14     7     8 ar
   15     7    38 1
   16     8     9 ar
   17     8    11 1
   18     9    10 ar
   19     9    39 1
   20    11    12 2
   21    11    13 1
   22    12    40 1
   23    12    41 1
   24    13    42 1
   25    13    43 1
   26    14    18 1
   27    14    44 1
   28    14    45 1
   29    15    16 ar
   30    15    17 ar
   31    18    15 1
   32    18    33 1
   33    18    46 1
   34    19    20 1
   35    19    23 1
   36    19    24 2
   37    20    21 1
   38    20    47 1
   39    20    48 1
   40    21    22 1
   41    21    32 1
   42    21    49 1
   43    22    23 1
   44    22    50 1
   45    22    51 1
   46    23    52 1
   47    23    53 1
   48    24    25 1
   49    24    26 1
   50    25    54 1
   51    25    55 1
   52    26    56 1
   53    26    57 1
   54    26    58 1
   55    27    28 ar
   56    27    33 ar
   57    27    59 1
   58    28    31 ar
   59    28    60 1
   60    29    30 ar
   61    29    33 ar
   62    29    61 1
   63    30    31 ar
   64    30    62 1
   65    31    32 1
@<TRIPOS>SUBSTRUCTURE
1   ****   1
@<TRIPOS>MOLECULE
1fen
50  50  1  0  0
SMALL
FORMAL_CHARGES
@<TRIPOS>ATOM
    1 C1         1.2641    -0.7495     0.1537 C.3        1 ****  0
    2 C2        -0.0211    -1.3756    -0.3942 C.3        1 ****  0
    3 C3        -1.1870    -0.7374     0.3365 C.3        1 ****  0
    4 C4        -1.2897     0.7238    -0.1155 C.3        1 ****  0
    5 C5         0.0523     1.4258    -0.0565 C.2        1 ****  0
    6 C6         1.2086     0.7593     0.0632 C.2        1 ****  0
    7 C7         2.4629     1.5137     0.1094 C.2        1 ****  0
    8 C8         2.4512     2.8421     0.0328 C.2        1 ****  0
    9 C9         3.7103     3.5909     0.0797 C.2        1 ****  0
   10 C10        3.6993     4.9194     0.0031 C.2        1 ****  0
   11 C11        4.9545     5.6763     0.0493 C.2        1 ****  0
   12 C12        4.9304     7.0050    -0.0283 C.2        1 ****  0
   13 C13        6.1765     7.7747     0.0165 C.2        1 ****  0
   14 C14        6.1352     9.1043    -0.0625 C.2        1 ****  0
   15 C15        7.4024     9.9130    -0.0184 C.3        1 ****  0
   16 C16        2.4664    -1.2705    -0.6569 C.3        1 ****  0
   17 C17        1.4327    -1.1492     1.6325 C.3        1 ****  0
   18 C18        0.0819     2.9209    -0.1518 C.3        1 ****  0
   19 C19        5.0135     2.8548     0.2144 C.3        1 ****  0
   20 C20        7.4952     7.0630     0.1511 C.3        1 ****  0
   21 H1        -0.0158    -2.4598    -0.2083 H          1 ****  0
   22 H2        -0.1030    -1.1726    -1.4722 H          1 ****  0
   23 H3        -2.1170    -1.2682     0.0847 H          1 ****  0
   24 H4        -1.0113    -0.7767     1.4217 H          1 ****  0
   25 H5        -1.6683     0.7567    -1.1478 H          1 ****  0
   26 H6        -2.0022     1.2543     0.5335 H          1 ****  0
   27 H7         3.4195     0.9797     0.2079 H          1 ****  0
   28 H8         1.4959     3.3786    -0.0658 H          1 ****  0
   29 H9         2.7426     5.4533    -0.0955 H          1 ****  0
   30 H10        5.9139     5.1472     0.1478 H          1 ****  0
   31 H11        3.9682     7.5289    -0.1268 H          1 ****  0
   32 H12        5.1658     9.6147    -0.1607 H          1 ****  0
   33 H13        8.0180     9.5204    -0.8412 H          1 ****  0
   34 H14        7.8923     9.6212     0.9222 H          1 ****  0
   35 H15        7.2416    10.9987    -0.0919 H          1 ****  0
   36 H16        2.5172    -2.3665    -0.5777 H          1 ****  0
   37 H17        3.3947    -0.8313    -0.2628 H          1 ****  0
   38 H18        2.3476    -0.9860    -1.7128 H          1 ****  0
   39 H19        2.3597    -0.7098     2.0296 H          1 ****  0
   40 H20        1.4821    -2.2451     1.7147 H          1 ****  0
   41 H21        0.5751    -0.7780     2.2126 H          1 ****  0
   42 H22       -0.5623     3.2794     0.6647 H          1 ****  0
   43 H23       -0.4247     3.1643    -1.0974 H          1 ****  0
   44 H24        1.0948     3.3468    -0.1005 H          1 ****  0
   45 H25        5.0316     2.1527    -0.6322 H          1 ****  0
   46 H26        4.9063     2.2532     1.1291 H          1 ****  0
   47 H27        5.8982     3.5081     0.2401 H          1 ****  0
   48 H28        7.5245     6.3600    -0.6945 H          1 ****  0
   49 H29        7.3991     6.4607     1.0664 H          1 ****  0
   50 H30        8.3679     7.7323     0.1750 H          1 ****  0
@<TRIPOS>BOND
    1     1     2 1
    2     1     6 1
    3     1    16 1
    4     1    17 1
    5     2     3 1
    6     2    21 1
    7     2    22 1
    8     3     4 1
    9     3    23 1
   10     3    24 1
   11     4     5 1
   12     4    25 1
   13     4    26 1
   14     5     6 2
   15     5    18 1
   16     6     7 1
   17     7     8 2
   18     7    27 1
   19     8     9 1
   20     8    28 1
   21     9    10 2
   22     9    19 1
   23    10    11 1
   24    10    29 1
   25    11    12 2
   26    11    30 1
   27    12    13 1
   28    12    31 1
   29    13    14 2
   30    13    20 1
   31    14    15 1
   32    14    32 1
   33    15    33 1
   34    15    34 1
   35    15    35 1
   36    16    36 1
   37    16    37 1
   38    16    38 1
   39    17    39 1
   40    17    40 1
   41    17    41 1
   42    18    42 1
   43    18    43 1
   44    18    44 1
   45    19    45 1
   46    19    46 1
   47    19    47 1
   48    20    48 1
   49    20    49 1
   50    20    50 1
@<TRIPOS>SUBSTRUCTURE
1   ****   1
@<TRIPOS>MOLECULE
1fgi
37  39  1  0  0
SMALL
FORMAL_CHARGES
@<TRIPOS>ATOM
    1 N1        -2.3974    -1.4562    -0.0002 N.am       1 ****  0
    2 C1        -1.9746    -2.8014    -0.0004 C.2        1 ****  0
    3 O1        -2.7328    -3.7701    -0.0004 O.2        1 ****  0
    4 C2        -0.4943    -2.7994    -0.0005 C.2        1 ****  0
    5 C3         1.1426    -0.8391    -0.0003 C.ar       1 ****  0
    6 C4         1.2152     0.5524    -0.0001 C.ar       1 ****  0
    7 C5         0.0573     1.3364     0.0001 C.ar       1 ****  0
    8 C6        -1.2088     0.7540     0.0001 C.ar       1 ****  0
    9 C7        -1.2656    -0.6321    -0.0001 C.ar       1 ****  0
   10 C8        -0.1256    -1.4013    -0.0003 C.ar       1 ****  0
   11 C9         0.4032    -3.7948    -0.0007 C.2        1 ****  0
   12 N2        -0.9493    -5.9438    -0.0011 N.ar       1 ****  0
   13 C10        0.2074    -5.2820    -0.0009 C.ar       1 ****  0
   14 C11        1.2312    -6.2304    -0.0008 C.ar       1 ****  0
   15 C12        0.6086    -7.4653    -0.0010 C.ar       1 ****  0
   16 C13       -0.7640    -7.2629    -0.0012 C.ar       1 ****  0
   17 C14        1.2978    -8.7983    -0.0011 C.3        1 ****  0
   18 C15        2.7646    -6.0430    -0.0006 C.3        1 ****  0
   19 C16        3.2367    -4.5727    -0.0011 C.3        1 ****  0
   20 C17        4.7291    -4.4859    -0.0008 C.2        1 ****  0.0000
   21 O2         5.2773    -3.3778    -0.0006 O.co2      1 ****  -0.50
   22 O3         5.4789    -5.6159    -0.0007 O.co2      1 ****  -0.50
   23 H1        -3.3404    -1.1461    -0.0001 H          1 ****  0
   24 H2         2.0240    -1.4457    -0.0005 H          1 ****  0
   25 H3         2.1731     1.0292    -0.0001 H          1 ****  0
   26 H4         0.1450     2.4028     0.0003 H          1 ****  0
   27 H5        -2.0978     1.3496     0.0002 H          1 ****  0
   28 H6         1.4249    -3.4772    -0.0007 H          1 ****  0
   29 H7        -1.8194    -5.5354    -0.0012 H          1 ****  0
   30 H8        -1.5232    -8.0169    -0.0013 H          1 ****  0
   31 H9         1.9698    -8.6965     0.8721 H          1 ****  0
   32 H10        1.9700    -8.6964    -0.8741 H          1 ****  0
   33 H11        0.7295    -9.5665    -0.0012 H          1 ****  0
   34 H12        3.1842    -6.5496     0.8754 H          1 ****  0
   35 H13        3.1844    -6.5490    -0.8733 H          1 ****  0
   36 H14        2.8514    -4.0740    -0.8772 H          1 ****  0
   37 H15        2.8521    -4.0736     0.8715 H          1 ****  0
@<TRIPOS>BOND
    1     1     2 am
    2     1     9 1
    3     1    23 1
    4     2     3 2
    5     2     4 1
    6     4    10 1
    7     4    11 2
    8     5     6 ar
    9     5    10 ar
   10     5    24 1
   11     6     7 ar
   12     6    25 1
   13     7     8 ar
   14     7    26 1
   15     8     9 ar
   16     8    27 1
   17     9    10 ar
   18    11    13 1
   19    11    28 1
   20    12    13 ar
   21    12    16 ar
   22    12    29 1
   23    13    14 ar
   24    14    15 ar
   25    14    18 1
   26    15    16 ar
   27    15    17 1
   28    16    30 1
   29    17    31 1
   30    17    32 1
   31    17    33 1
   32    18    19 1
   33    18    34 1
   34    18    35 1
   35    19    20 1
   36    19    36 1
   37    19    37 1
   38    20    21 ar
   39    20    22 ar
@<TRIPOS>SUBSTRUCTURE
1   ****   1
@<TRIPOS>MOLECULE
1fkg
68  70  1  0  0
SMALL
FORMAL_CHARGES
@<TRIPOS>ATOM
    1 C1         2.4909    -1.3159    -0.4871 C.2        1 ****  0
    2 O1         2.8035    -1.1253    -1.8501 O.3        1 ****  0
    3 O2         3.2032    -2.0482     0.2081 O.2        1 ****  0
    4 C2         1.2513    -0.6467     0.1422 C.3        1 ****  0
    5 C3         0.0051    -1.4245    -0.3130 C.3        1 ****  0
    6 C4        -1.2434    -0.7890     0.3001 C.3        1 ****  0
    7 C5        -1.3747     0.6157    -0.2838 C.3        1 ****  0
    8 C6        -0.1586     1.4655     0.1177 C.3        1 ****  0
    9 N1         1.0976     0.8007    -0.1829 N.am       1 ****  0
   10 C7         2.2291     1.5685    -0.5786 C.2        1 ****  0
   11 O3         3.3259     1.0322    -0.5531 O.2        1 ****  0
   12 C8         2.1711     3.0019    -1.0020 C.2        1 ****  0
   13 O4         1.1196     3.6510    -0.9726 O.2        1 ****  0
   14 C9         3.4337     3.6626    -1.5360 C.3        1 ****  0
   15 C10        3.1619     5.1328    -1.8838 C.3        1 ****  0
   16 C11        4.4626     5.7707    -2.4216 C.3        1 ****  0
   17 C12        4.5585     3.6119    -0.4759 C.3        1 ****  0
   18 C13        3.8908     2.9298    -2.8183 C.3        1 ****  0
   19 C14        4.0945    -0.8050    -2.5436 C.3        1 ****  0
   20 C15        4.0724    -1.7624    -3.8064 C.3        1 ****  0
   21 C16        5.2607    -2.5812    -4.3499 C.3        1 ****  0
   22 C17        5.2914    -2.4952    -5.8494 C.ar       1 ****  0
   23 C18        6.2979    -3.1372    -6.5607 C.ar       1 ****  0
   24 C19        6.3287    -3.0570    -7.9481 C.ar       1 ****  0
   25 C20        5.3521    -2.3356    -8.6242 C.ar       1 ****  0
   26 C21        4.3443    -1.6948    -7.9131 C.ar       1 ****  0
   27 C22        4.3141    -1.7743    -6.5260 C.ar       1 ****  0
   28 C23        5.2885    -1.2838    -1.6731 C.ar       1 ****  0
   29 C24        6.3102    -2.1290    -1.2454 C.ar       1 ****  0
   30 C25        7.4840    -1.5981    -0.7235 C.ar       1 ****  0
   31 C26        7.6425    -0.2212    -0.6108 C.ar       1 ****  0
   32 C27        6.6298     0.6238    -1.0405 C.ar       1 ****  0
   33 C28        5.4667     0.0876    -1.5813 C.ar       1 ****  0
   34 H1         1.3213    -0.7402     1.2341 H          1 ****  0
   35 H2         0.0811    -2.4413     0.0086 H          1 ****  0
   36 H3        -0.0661    -1.3915    -1.3821 H          1 ****  0
   37 H4        -2.1005    -1.3640     0.0430 H          1 ****  0
   38 H5        -1.1331    -0.7277     1.3534 H          1 ****  0
   39 H6        -2.2680     1.0753     0.0882 H          1 ****  0
   40 H7        -1.4288     0.5540    -1.3547 H          1 ****  0
   41 H8        -0.1943     2.4114    -0.4093 H          1 ****  0
   42 H9        -0.2033     1.6750     1.1768 H          1 ****  0
   43 H10        2.8453     5.6548    -1.0084 H          1 ****  0
   44 H11        2.4007     5.1880    -2.6339 H          1 ****  0
   45 H12        4.7834     5.2531    -3.2996 H          1 ****  0
   46 H13        5.2262     5.7191    -1.6760 H          1 ****  0
   47 H14        4.2778     6.8032    -2.6675 H          1 ****  0
   48 H15        4.7638     2.5887    -0.2327 H          1 ****  0
   49 H16        4.2307     4.1238     0.4065 H          1 ****  0
   50 H17        5.4379     4.0762    -0.8577 H          1 ****  0
   51 H18        3.1208     2.9860    -3.5580 H          1 ****  0
   52 H19        4.0948     1.9048    -2.5929 H          1 ****  0
   53 H20        4.7824     3.3946    -3.1974 H          1 ****  0
   54 H21        4.1900     0.2537    -2.8215 H          1 ****  0
   55 H22        4.1900    -0.7332    -4.0917 H          1 ****  0
   56 H23        3.1568    -2.1368    -4.2331 H          1 ****  0
   57 H24        6.1769    -2.1893    -3.9514 H          1 ****  0
   58 H25        5.1547    -3.6044    -4.0546 H          1 ****  0
   59 H26        7.0493    -3.6935    -6.0403 H          1 ****  0
   60 H27        7.1044    -3.5507    -8.4954 H          1 ****  0
   61 H28        5.3760    -2.2735    -9.6921 H          1 ****  0
   62 H29        3.5917    -1.1403    -8.4337 H          1 ****  0
   63 H30        3.5386    -1.2805    -5.9787 H          1 ****  0
   64 H31        6.1910    -3.1898    -1.3188 H          1 ****  0
   65 H32        8.2695    -2.2521    -0.4069 H          1 ****  0
   66 H33        8.5410     0.1844    -0.1947 H          1 ****  0
   67 H34        6.7435     1.6844    -0.9560 H          1 ****  0
   68 H35        4.6974     0.7435    -1.9320 H          1 ****  0
@<TRIPOS>BOND
    1     1     2 1
    2     1     3 2
    3     4     1 1
    4     4     5 1
    5     4     9 1
    6     4    34 1
    7     5     6 1
    8     5    35 1
    9     5    36 1
   10     6     7 1
   11     6    37 1
   12     6    38 1
   13     7     8 1
   14     7    39 1
   15     7    40 1
   16     8     9 1
   17     8    41 1
   18     8    42 1
   19     9    10 am
   20    10    11 2
   21    10    12 1
   22    12    13 2
   23    12    14 1
   24    14    15 1
   25    14    17 1
   26    14    18 1
   27    15    16 1
   28    15    43 1
   29    15    44 1
   30    16    45 1
   31    16    46 1
   32    16    47 1
   33    17    48 1
   34    17    49 1
   35    17    50 1
   36    18    51 1
   37    18    52 1
   38    18    53 1
   39    19     2 1
   40    19    20 1
   41    19    28 1
   42    19    54 1
   43    20    21 1
   44    20    55 1
   45    20    56 1
   46    21    22 1
   47    21    57 1
   48    21    58 1
   49    22    23 ar
   50    22    27 ar
   51    23    24 ar
   52    23    59 1
   53    24    25 ar
   54    24    60 1
   55    25    26 ar
   56    25    61 1
   57    26    27 ar
   58    26    62 1
   59    27    63 1
   60    28    29 ar
   61    28    33 ar
   62    29    30 ar
   63    29    64 1
   64    30    31 ar
   65    30    65 1
   66    31    32 ar
   67    31    66 1
   68    32    33 ar
   69    32    67 1
   70    33    68 1
@<TRIPOS>SUBSTRUCTURE
1   ****   1
@<TRIPOS>MOLECULE
1fki
70  71  1  0  0
SMALL
FORMAL_CHARGES
@<TRIPOS>ATOM
    1 N1         1.2630     1.4813    -0.4815 N.am       1 ****  0
    2 C1         2.4025     1.9955     0.3434 C.2        1 ****  0
    3 O1         2.2094     3.0127     1.0207 O.2        1 ****  0
    4 C2         3.8299     1.4173     0.4898 C.2        1 ****  0
    5 O2         4.5801     2.0371     1.2538 O.2        1 ****  0
    6 C3         4.4461     0.1894    -0.1999 C.3        1 ****  0
    7 C4         3.7247    -1.0919     0.2410 C.3        1 ****  0
    8 O3         4.2803    -2.2635    -0.3638 O.3        1 ****  0
    9 C5         3.3064    -3.2686    -0.3101 C.2        1 ****  0
   10 O4         3.5409    -4.3949    -0.7621 O.2        1 ****  0
   11 C6         1.9466    -2.9356     0.2430 C.3        1 ****  0
   12 C7         1.1734    -4.1702     0.7151 C.3        1 ****  0
   13 C8        -0.1824    -3.6614     1.2406 C.3        1 ****  0
   14 C9        -1.0015    -3.0833     0.0672 C.3        1 ****  0
   15 C10       -2.1460    -2.2074     0.6109 C.3        1 ****  0
   16 C11       -3.0993    -1.8306    -0.5385 C.3        1 ****  0
   17 C12       -4.0132    -0.6751    -0.0934 C.3        1 ****  0
   18 C13       -3.1396     0.5813     0.0454 C.3        1 ****  0
   19 C14       -3.9810     1.8036     0.4429 C.3        1 ****  0
   20 C15       -3.0892     3.0552     0.3289 C.3        1 ****  0
   21 C16       -1.8628     2.9336     1.2718 C.3        1 ****  0
   22 O5        -0.9340     3.9978     0.9866 O.3        1 ****  0
   23 C17       -0.0091     3.6236    -0.0137 C.2        1 ****  0
   24 O6         0.8252     4.4455    -0.4103 O.2        1 ****  0
   25 C18        0.6925     2.8033    -1.2042 C.3        1 ****  0
   26 C19       -0.4592     2.3028    -2.0664 C.3        1 ****  0
   27 C20       -0.5547     0.8890    -2.6426 C.3        1 ****  0
   28 C21        0.8279     0.2519    -2.5584 C.3        1 ****  0
   29 C22        1.2600     0.1856    -1.0884 C.3        1 ****  0
   30 C23        4.4277     0.3472    -1.7336 C.3        1 ****  0
   31 C24        5.9074     0.0757     0.2816 C.3        1 ****  0
   32 H1         3.7946    -1.1866     1.3347 H          1 ****  0
   33 H2         2.6612    -1.0195    -0.0308 H          1 ****  0
   34 H3         2.0651    -2.2432     1.0895 H          1 ****  0
   35 H4         1.3601    -2.4225    -0.5333 H          1 ****  0
   36 H5         1.7238    -4.6699     1.5259 H          1 ****  0
   37 H6         1.0125    -4.8563    -0.1295 H          1 ****  0
   38 H7        -0.7353    -4.4953     1.6976 H          1 ****  0
   39 H8        -0.0146    -2.8759     1.9921 H          1 ****  0
   40 H9        -0.3459    -2.4728    -0.5710 H          1 ****  0
   41 H10       -1.4232    -3.9074    -0.5271 H          1 ****  0
   42 H11       -2.7017    -2.7656     1.3788 H          1 ****  0
   43 H12       -1.7288    -1.2916     1.0549 H          1 ****  0
   44 H13       -3.7154    -2.7019    -0.8056 H          1 ****  0
   45 H14       -2.5118    -1.5160    -1.4137 H          1 ****  0
   46 H15       -4.4722    -0.9161     0.8767 H          1 ****  0
   47 H16       -4.7911    -0.5037    -0.8521 H          1 ****  0
   48 H17       -2.3718     0.4056     0.8133 H          1 ****  0
   49 H18       -2.6391     0.7834    -0.9130 H          1 ****  0
   50 H19       -4.8401     1.8988    -0.2374 H          1 ****  0
   51 H20       -4.3304     1.6923     1.4800 H          1 ****  0
   52 H21       -3.6727     3.9460     0.6044 H          1 ****  0
   53 H22       -2.7409     3.1612    -0.7091 H          1 ****  0
   54 H23       -2.1952     3.0078     2.3177 H          1 ****  0
   55 H24       -1.3694     1.9638     1.1107 H          1 ****  0
   56 H25        1.4013     3.3789    -1.8177 H          1 ****  0
   57 H26       -1.4428     2.7911    -2.1297 H          1 ****  0
   58 H27        0.2763     2.8837    -2.6421 H          1 ****  0
   59 H28       -0.8759     0.9372    -3.6936 H          1 ****  0
   60 H29       -1.2711     0.2968    -2.0543 H          1 ****  0
   61 H30        0.7905    -0.7649    -2.9762 H          1 ****  0
   62 H31        1.5489     0.8589    -3.1257 H          1 ****  0
   63 H32        2.2712    -0.2431    -1.0281 H          1 ****  0
   64 H33        0.5688    -0.4697    -0.5381 H          1 ****  0
   65 H34        5.0000     1.2467    -2.0044 H          1 ****  0
   66 H35        3.3861     0.4708    -2.0649 H          1 ****  0
   67 H36        4.8713    -0.5382    -2.2123 H          1 ****  0
   68 H37        5.9435    -0.0637     1.3721 H          1 ****  0
   69 H38        6.4762     0.9742    -0.0000 H          1 ****  0
   70 H39        6.3685    -0.7987    -0.2009 H          1 ****  0
@<TRIPOS>BOND
    1     1     2 am
    2     1    29 1
    3     2     3 2
    4     2     4 1
    5     4     5 2
    6     4     6 1
    7     6     7 1
    8     6    30 1
    9     6    31 1
   10     7     8 1
   11     7    32 1
   12     7    33 1
   13     8     9 1
   14     9    10 2
   15     9    11 1
   16    11    12 1
   17    11    34 1
   18    11    35 1
   19    12    13 1
   20    12    36 1
   21    12    37 1
   22    13    14 1
   23    13    38 1
   24    13    39 1
   25    14    15 1
   26    14    40 1
   27    14    41 1
   28    15    16 1
   29    15    42 1
   30    15    43 1
   31    16    17 1
   32    16    44 1
   33    16    45 1
   34    17    18 1
   35    17    46 1
   36    17    47 1
   37    18    19 1
   38    18    48 1
   39    18    49 1
   40    19    20 1
   41    19    50 1
   42    19    51 1
   43    20    21 1
   44    20    52 1
   45    20    53 1
   46    21    22 1
   47    21    54 1
   48    21    55 1
   49    22    23 1
   50    23    24 2
   51    23    25 1
   52    25     1 1
   53    25    26 1
   54    25    56 1
   55    26    27 1
   56    26    57 1
   57    26    58 1
   58    27    28 1
   59    27    59 1
   60    27    60 1
   61    28    29 1
   62    28    61 1
   63    28    62 1
   64    29    63 1
   65    29    64 1
   66    30    65 1
   67    30    66 1
   68    30    67 1
   69    31    68 1
   70    31    69 1
   71    31    70 1
@<TRIPOS>SUBSTRUCTURE
1   ****   1
@<TRIPOS>MOLECULE
1fl3
41  42  1  0  0
SMALL
FORMAL_CHARGES
@<TRIPOS>ATOM
    1 C1         4.8901    -2.8849     0.0001 C.ar       1 ****  0
    2 C2         6.0947    -3.5777     0.0002 C.ar       1 ****  0
    3 C3         7.2973    -2.8806     0.0003 C.ar       1 ****  0
    4 C4         7.2957    -1.4912     0.0002 C.ar       1 ****  0
    5 C5         6.0903    -0.7979     0.0001 C.ar       1 ****  0
    6 C6         4.8884    -1.4945     0.0001 C.ar       1 ****  0
    7 C7         3.6197    -0.7607     0.0001 C.2        1 ****  0
    8 C8         2.4645    -1.4237    -0.0001 C.2        1 ****  0
    9 C9         1.1961    -0.6908    -0.0001 C.ar       1 ****  0
   10 C10        1.1969     0.6991     0.0001 C.ar       1 ****  0
   11 C11       -0.0065     1.3941     0.0001 C.ar       1 ****  0
   12 C12       -1.2101     0.6988    -0.0001 C.ar       1 ****  0
   13 C13       -1.2107    -0.6909    -0.0003 C.ar       1 ****  0
   14 C14       -0.0073    -1.3859    -0.0003 C.ar       1 ****  0
   15 N1        -2.4361     1.4077    -0.0001 N.am       1 ****  0
   16 C15       -2.5475     2.8222     0.0001 C.2        1 ****  0
   17 C16       -3.9187     3.4370     0.0001 C.3        1 ****  0
   18 C17       -3.8294     4.9761     0.0004 C.3        1 ****  0
   19 C18       -5.2625     5.5487     0.0004 C.3        1 ****  0
   20 C19       -5.2287     7.0506     0.0006 C.2        1 ****  0.0000
   21 O1        -6.2873     7.6898     0.0006 O.co2      1 ****  -0.50
   22 O2        -1.5516     3.5552     0.0003 O.2        1 ****  0
   23 O3        -4.0402     7.7068     0.0007 O.co2      1 ****  -0.50
   24 H1         3.9383    -3.4363     0.0001 H          1 ****  0
   25 H2         6.0966    -4.6777     0.0003 H          1 ****  0
   26 H3         8.2508    -3.4291     0.0003 H          1 ****  0
   27 H4         8.2475    -0.9399     0.0002 H          1 ****  0
   28 H5         6.0884     0.3021     0.0001 H          1 ****  0
   29 H6         3.6216     0.3393     0.0001 H          1 ****  0
   30 H7         2.4629    -2.5237    -0.0001 H          1 ****  0
   31 H8         2.1497     1.2488     0.0003 H          1 ****  0
   32 H9        -0.0066     2.4941     0.0003 H          1 ****  0
   33 H10       -2.1635    -1.2407    -0.0004 H          1 ****  0
   34 H11       -0.0072    -2.4859    -0.0004 H          1 ****  0
   35 H12       -3.3074     0.8583    -0.0002 H          1 ****  0
   36 H13       -4.4654     3.1054    -0.8949 H          1 ****  0
   37 H14       -4.4665     3.1054     0.8946 H          1 ****  0
   38 H15       -3.2971     5.3149     0.9014 H          1 ****  0
   39 H16       -3.2969     5.3161    -0.9001 H          1 ****  0
   40 H17       -5.7953     5.1973    -0.8955 H          1 ****  0
   41 H18       -5.7963     5.1973     0.8957 H          1 ****  0
@<TRIPOS>BOND
    1     1     2 ar
    2     1     6 ar
    3     1    24 1
    4     2     3 ar
    5     2    25 1
    6     3     4 ar
    7     3    26 1
    8     4     5 ar
    9     4    27 1
   10     5     6 ar
   11     5    28 1
   12     6     7 1
   13     7     8 2
   14     7    29 1
   15     8     9 1
   16     8    30 1
   17     9    10 ar
   18     9    14 ar
   19    10    11 ar
   20    10    31 1
   21    11    12 ar
   22    11    32 1
   23    12    13 ar
   24    12    15 1
   25    13    14 ar
   26    13    33 1
   27    14    34 1
   28    15    16 am
   29    15    35 1
   30    16    17 1
   31    16    22 2
   32    17    18 1
   33    17    36 1
   34    17    37 1
   35    18    19 1
   36    18    38 1
   37    18    39 1
   38    19    20 1
   39    19    40 1
   40    19    41 1
   41    20    21 ar
   42    20    23 ar
@<TRIPOS>SUBSTRUCTURE
1   ****   1
@<TRIPOS>MOLECULE
1flr
36  39  1  0  0
SMALL
FORMAL_CHARGES
@<TRIPOS>ATOM
    1 C1         1.5152    -0.6270     0.0195 C.ar       1 ****  0
    2 O1         2.7377    -1.2852     0.1743 O.3        1 ****  0
    3 C2         1.4366     0.8297     0.1207 C.ar       1 ****  0
    4 C3         0.2058     1.6075     0.0595 C.ar       1 ****  0
    5 O2         0.2071     2.9719     0.1099 O.3        1 ****  0
    6 C4        -1.0881     3.5538     0.0434 C.2        1 ****  0
    7 C5        -1.1264     4.8875     0.0552 C.2        1 ****  0
    8 C6        -2.3815     5.6167     0.0066 C.2        1 ****  0
    9 O3        -2.3820     6.8528    -0.0020 O.2        1 ****  0
   10 C7        -3.6284     4.8997    -0.0183 C.2        1 ****  0
   11 C8        -3.6388     3.5728    -0.0280 C.2        1 ****  0
   12 C9        -2.4034     2.7623    -0.0190 C.2        1 ****  0
   13 C10       -2.4090     1.3920    -0.0467 C.2        1 ****  0
   14 C11       -0.9865     0.8905    -0.0391 C.ar       1 ****  0
   15 C12       -0.2343    -0.1995    -0.0921 C.ar       1 ****  0
   16 C13        0.3382    -1.3877    -0.1960 C.ar       1 ****  0
   17 C14       -3.8369     0.5179    -0.0503 C.ar       1 ****  0
   18 C15       -5.0190     1.2605    -0.0535 C.ar       1 ****  0
   19 C16       -6.2992     0.7277    -0.0721 C.ar       1 ****  0
   20 C17       -6.4590    -0.6415    -0.1087 C.ar       1 ****  0
   21 C18       -5.3192    -1.4233    -0.0898 C.ar       1 ****  0
   22 C19       -4.0357    -0.8816    -0.0535 C.ar       1 ****  0
   23 C20       -3.0427    -1.8976     0.0790 C.2        1 ****  0.0000
   24 O4        -3.3757    -3.0638    -0.1677 O.co2      1 ****  -0.50
   25 O5        -1.9991    -1.6941     0.8067 O.co2      1 ****  -0.50
   26 H1         3.4534    -0.6314     0.3588 H          1 ****  0
   27 H2         2.3536     1.3658     0.2497 H          1 ****  0
   28 H3        -0.2079     5.4344     0.1016 H          1 ****  0
   29 H4        -4.5524     5.4392    -0.0292 H          1 ****  0
   30 H5        -4.5822     3.0682    -0.0430 H          1 ****  0
   31 H6         0.6709     0.3090     0.1668 H          1 ****  0
   32 H7         0.0559    -2.4068    -0.3597 H          1 ****  0
   33 H8        -4.9301     2.3267    -0.0405 H          1 ****  0
   34 H9        -7.1535     1.3718    -0.0582 H          1 ****  0
   35 H10       -7.4324    -1.0838    -0.1503 H          1 ****  0
   36 H11       -5.4267    -2.4878    -0.1036 H          1 ****  0
@<TRIPOS>BOND
    1     1     2 1
    2     1     3 ar
    3     1    16 ar
    4     2    26 1
    5     3     4 ar
    6     3    27 1
    7     4     5 1
    8     4    14 ar
    9     5     6 1
   10     6     7 2
   11     6    12 1
   12     7     8 1
   13     7    28 1
   14     8     9 2
   15     8    10 1
   16    10    11 2
   17    10    29 1
   18    11    12 1
   19    11    30 1
   20    12    13 2
   21    13    14 1
   22    13    17 1
   23    14    15 ar
   24    15    16 ar
   25    15    31 1
   26    16    32 1
   27    17    18 ar
   28    17    22 ar
   29    18    19 ar
   30    18    33 1
   31    19    20 ar
   32    19    34 1
   33    20    21 ar
   34    20    35 1
   35    21    22 ar
   36    21    36 1
   37    22    23 1
   38    23    24 ar
   39    23    25 ar
@<TRIPOS>SUBSTRUCTURE
1   ****   1
@<TRIPOS>MOLECULE
1frp
29  29  1  0  0
SMALL
FORMAL_CHARGES
@<TRIPOS>ATOM
    1 P1         0.4258    -2.7789     2.2921 P.3        1 ****  0
    2 O1        -0.8670    -3.4414     1.8817 O.2        1 ****  -1
    3 O2         1.5810    -3.6689     1.8672 O.2        1 ****  -1
    4 O3         0.4492    -2.6976     3.6695 O.2        1 ****  0
    5 O4         2.6593    -2.2015    -0.0580 O.3        1 ****  -1
    6 C1         1.2941    -2.2266    -0.4868 C.3        1 ****  0
    7 C2         0.5149    -1.1274     0.2488 C.3        1 ****  0
    8 O5         0.5829    -1.2955     1.7107 O.3        1 ****  0
    9 C3        -0.9623    -1.0067    -0.2604 C.3        1 ****  0
   10 O6        -1.8915    -1.9443     0.2427 O.3        1 ****  0
   11 C4        -1.2243     0.3644     0.2423 C.3        1 ****  0
   12 O7        -2.4755     0.9187    -0.1571 O.3        1 ****  0
   13 C5        -0.1047     0.1543    -0.8147 C.3        1 ****  0
   14 O8         1.1091     0.2194    -0.0321 O.3        1 ****  0
   15 C6        -0.0758     1.4057    -1.8587 C.3        1 ****  0
   16 O9        -0.0274     0.2241    -2.6531 O.3        1 ****  0
   17 P2        -0.4609     0.5435    -4.0967 P.3        1 ****  0
   18 O10       -1.8673     1.1101    -4.0759 O.2        1 ****  -1
   19 O11        0.4873     1.5554    -4.7067 O.2        1 ****  -1
   20 O12       -0.4444    -0.6182    -4.8436 O.2        1 ****  0
   21 H1         1.2473    -2.0517    -1.5423 H          1 ****  0
   22 H2         0.8655    -3.1784    -0.2606 H          1 ****  0
   23 H3        -0.9875    -1.0260    -1.3347 H          1 ****  0
   24 H4        -1.9684    -1.8232     1.2152 H          1 ****  0
   25 H5        -1.1564     0.3259     1.3377 H          1 ****  0
   26 H6        -3.2089     0.3536     0.1902 H          1 ****  0
   27 H7        -0.2041    -0.8186    -1.3176 H          1 ****  0
   28 H8         0.7484     2.0542    -2.1432 H          1 ****  0
   29 H9        -0.9958     1.9441    -2.0835 H          1 ****  0
@<TRIPOS>BOND
    1     1     2 1
    2     1     3 1
    3     1     4 2
    4     1     8 1
    5     5     6 1
    6     6    21 1
    7     6    22 1
    8     7     6 1
    9     7     8 1
   10     7     9 1
   11     7    14 1
   12     9    10 1
   13     9    11 1
   14     9    23 1
   15    10    24 1
   16    11    12 1
   17    11    13 1
   18    11    25 1
   19    12    26 1
   20    13    14 1
   21    13    15 1
   22    13    27 1
   23    15    16 1
   24    15    28 1
   25    15    29 1
   26    16    17 1
   27    17    18 1
   28    17    19 1
   29    17    20 2
@<TRIPOS>SUBSTRUCTURE
1   ****   1
@<TRIPOS>MOLECULE
1glp
38  37  1  0  0
SMALL
FORMAL_CHARGES
@<TRIPOS>ATOM
    1 N1         2.8368    -1.0232    -1.1398 N.4        1 ****  1
    2 C1         2.8499    -0.1309     0.0274 C.3        1 ****  0
    3 C2         1.6277     0.7395     0.0092 C.2        1 ****  0.0000
    4 O1         0.5100     0.2320    -0.1362 O.co2      1 ****  -0.50
    5 O2         1.7500     2.0847     0.1503 O.co2      1 ****  -0.50
    6 C3         4.1120     0.7481    -0.0020 C.3        1 ****  0
    7 C4         5.3621    -0.1495     0.0170 C.3        1 ****  0
    8 C5         6.5890     0.7107     0.0149 C.2        1 ****  0
    9 O3         6.4738     1.9425     0.0282 O.2        1 ****  0
   10 N2         7.8582     0.1193     0.0170 N.am       1 ****  0
   11 C6         9.0880     0.2192    -0.8573 C.3        1 ****  0
   12 C7        10.2622     0.0787     0.1323 C.2        1 ****  0
   13 O4        10.1541    -1.0917     0.5185 O.2        1 ****  0
   14 C8         9.1172     1.7305    -1.3382 C.3        1 ****  0
   15 S1         9.1350     0.5865    -2.7442 S.O2       1 ****  0
   16 O5         7.8839    -0.2707    -2.7132 O.co2      1 ****  0
   17 O6        10.4811    -0.3939    -2.6643 O.co2      1 ****  -1
   18 O7         9.1692     1.3796    -4.0367 O.co2      1 ****  0
   19 N3        11.5208     0.6040    -0.1585 N.am       1 ****  0
   20 C9        12.6891    -0.2149    -0.0230 C.3        1 ****  0
   21 C10       13.9114     0.6559    -0.0257 C.2        1 ****  0.0000
   22 O8        13.7820     2.0059    -0.1009 O.co2      1 ****  -0.50
   23 O9        15.0348     0.1454     0.0462 O.co2      1 ****  -0.50
   24 H1         3.6735    -1.6236    -1.1202 H          1 ****  0
   25 H2         2.8418    -0.4587    -2.0014 H          1 ****  0
   26 H3         1.9910    -1.6105    -1.1179 H          1 ****  0
   27 H4         2.8532    -0.7361     0.9459 H          1 ****  0
   28 H5         4.1130     1.3581    -0.9173 H          1 ****  0
   29 H6         4.1216     1.4075     0.8784 H          1 ****  0
   30 H7         5.3530    -0.7728     0.9233 H          1 ****  0
   31 H8         5.3656    -0.7948    -0.8738 H          1 ****  0
   32 H9         7.9437    -0.9067     0.0461 H          1 ****  0
   33 H10        9.1340    -0.4938    -1.6936 H          1 ****  0
   34 H11       10.0351     2.3365    -1.3485 H          1 ****  0
   35 H12        8.2419     2.3921    -1.4161 H          1 ****  0
   36 H13       11.6108     1.5813    -0.4709 H          1 ****  0
   37 H14       12.6387    -0.7725     0.9239 H          1 ****  0
   38 H15       12.7420    -0.9226    -0.8635 H          1 ****  0
@<TRIPOS>BOND
    1     1    24 1
    2     1    25 1
    3     1    26 1
    4     2     1 1
    5     2     3 1
    6     2     6 1
    7     2    27 1
    8     3     4 ar
    9     3     5 ar
   10     6     7 1
   11     6    28 1
   12     6    29 1
   13     7     8 1
   14     7    30 1
   15     7    31 1
   16     8     9 2
   17     8    10 am
   18    10    32 1
   19    11    10 1
   20    11    12 1
   21    11    14 1
   22    11    33 1
   23    12    13 2
   24    12    19 am
   25    14    15 1
   26    14    34 1
   27    14    35 1
   28    15    16 ar
   29    15    17 ar
   30    15    18 ar
   31    19    20 1
   32    19    36 1
   33    20    21 1
   34    20    37 1
   35    20    38 1
   36    21    22 ar
   37    21    23 ar
@<TRIPOS>SUBSTRUCTURE
1   ****   1
@<TRIPOS>MOLECULE
1glq
51  51  1  0  0
SMALL
FORMAL_CHARGES
@<TRIPOS>ATOM
    1 N1        12.9449    -1.4206     1.1096 N.4        1 ****  1
    2 C1        12.8314    -0.5865    -0.0946 C.3        1 ****  0
    3 C2        13.9845     0.3730    -0.1512 C.2        1 ****  0.0000
    4 O1        15.1420    -0.0469    -0.0394 O.co2      1 ****  -0.50
    5 O2        13.7575     1.7005    -0.3239 O.co2      1 ****  -0.50
    6 C3        11.4997     0.1863    -0.0671 C.3        1 ****  0
    7 C4        10.3365    -0.8223    -0.0121 C.3        1 ****  0
    8 C5         9.0267    -0.0909     0.0080 C.2        1 ****  0
    9 O3         9.0077     1.1446    -0.0299 O.2        1 ****  0
   10 N2         7.8286    -0.8095     0.0525 N.am       1 ****  0
   11 C6         6.5769    -0.1121     0.0882 C.3        1 ****  0
   12 C7         6.4621     0.6237     1.3888 C.2        1 ****  0
   13 O4         6.3327     1.8524     1.3940 O.2        1 ****  0
   14 C8         5.4388    -1.1407     0.0093 C.3        1 ****  0
   15 S1         3.8605    -0.2598     0.0621 S.3        1 ****  0
   16 C9         2.4928    -1.4405     0.0000 C.3        1 ****  0
   17 C10        1.1961    -0.6908    -0.0001 C.ar       1 ****  0
   18 C11       -0.0073    -1.3859    -0.0003 C.ar       1 ****  0
   19 C12       -1.2107    -0.6909    -0.0003 C.ar       1 ****  0
   20 C13       -1.2101     0.6988    -0.0001 C.ar       1 ****  0
   21 C14       -0.0065     1.3941     0.0001 C.ar       1 ****  0
   22 C15        1.1969     0.6991     0.0001 C.ar       1 ****  0
   23 N3        -2.4200     1.3969    -0.0001 N.pl3      1 ****  0.0000
   24 O5        -2.4193     2.6885     0.0001 O.2        1 ****  0.0000
   25 O6        -3.4387     0.8095    -0.0002 O.2        1 ****  0.0000
   26 N4         6.4890    -0.0792     2.5933 N.am       1 ****  0
   27 C16        6.3736     0.6314     3.8333 C.3        1 ****  0
   28 C17        6.4485    -0.3354     4.9789 C.2        1 ****  0.0000
   29 O7         6.3820     0.0788     6.1419 O.co2      1 ****  -0.50
   30 O8         6.5908    -1.6643     4.7384 O.co2      1 ****  -0.50
   31 H1        12.1613    -2.0885     1.1387 H          1 ****  0
   32 H2        12.9139    -0.8205     1.9461 H          1 ****  0
   33 H3        13.8359    -1.9369     1.0899 H          1 ****  0
   34 H4        12.8530    -1.2273    -0.9884 H          1 ****  0
   35 H5        11.4677     0.8329     0.8223 H          1 ****  0
   36 H6        11.4106     0.8004    -0.9754 H          1 ****  0
   37 H7        10.4257    -1.4358     0.8966 H          1 ****  0
   38 H8        10.3764    -1.4752    -0.8964 H          1 ****  0
   39 H9         7.8452    -1.8393     0.0596 H          1 ****  0
   40 H10        6.5177     0.5947    -0.7526 H          1 ****  0
   41 H11        5.5141    -1.7035    -0.9329 H          1 ****  0
   42 H12        5.5030    -1.8306     0.8637 H          1 ****  0
   43 H13        2.5355    -2.0999     0.8795 H          1 ****  0
   44 H14        2.5689    -2.0427    -0.9173 H          1 ****  0
   45 H15       -0.0072    -2.4859    -0.0004 H          1 ****  0
   46 H16       -2.1635    -1.2407    -0.0004 H          1 ****  0
   47 H17       -0.0066     2.4941     0.0003 H          1 ****  0
   48 H18        2.1497     1.2488     0.0003 H          1 ****  0
   49 H19        6.5914    -1.1041     2.5920 H          1 ****  0
   50 H20        7.1935     1.3600     3.9156 H          1 ****  0
   51 H21        5.4100     1.1611     3.8646 H          1 ****  0
@<TRIPOS>BOND
    1     1    31 1
    2     1    32 1
    3     1    33 1
    4     2     1 1
    5     2     3 1
    6     2     6 1
    7     2    34 1
    8     3     4 ar
    9     3     5 ar
   10     6     7 1
   11     6    35 1
   12     6    36 1
   13     7     8 1
   14     7    37 1
   15     7    38 1
   16     8     9 2
   17     8    10 am
   18    10    39 1
   19    11    10 1
   20    11    12 1
   21    11    14 1
   22    11    40 1
   23    12    13 2
   24    12    26 am
   25    14    15 1
   26    14    41 1
   27    14    42 1
   28    15    16 1
   29    16    17 1
   30    16    43 1
   31    16    44 1
   32    17    18 ar
   33    17    22 ar
   34    18    19 ar
   35    18    45 1
   36    19    20 ar
   37    19    46 1
   38    20    21 ar
   39    20    23 1
   40    21    22 ar
   41    21    47 1
   42    22    48 1
   43    23    24 2
   44    23    25 2
   45    26    27 1
   46    26    49 1
   47    27    28 1
   48    27    50 1
   49    27    51 1
   50    28    29 ar
   51    28    30 ar
@<TRIPOS>SUBSTRUCTURE
1   ****   1
@<TRIPOS>MOLECULE
1hak
62  65  1  0  0
SMALL
FORMAL_CHARGES
@<TRIPOS>ATOM
    1 C1         3.8539     0.1599     1.0583 C.ar       1 ****  0
    2 C2         2.9008    -0.6950     0.5004 C.ar       1 ****  0
    3 C3         1.6365    -0.2161     0.1350 C.ar       1 ****  0
    4 C4         1.3523     1.1400     0.2943 C.ar       1 ****  0
    5 C5         2.2956     1.9771     0.8745 C.ar       1 ****  0
    6 C6         3.5309     1.4910     1.2686 C.ar       1 ****  0
    7 C7         0.6016    -1.1648    -0.4860 C.3        1 ****  0
    8 N1        -0.7210    -1.0359     0.1522 N.am       1 ****  0
    9 C8        -1.7299    -0.2858    -0.4531 C.3        1 ****  0
   10 C9        -1.6920     1.0779     0.1981 C.3        1 ****  0
   11 S1        -0.1639     1.9039    -0.2741 S.3        1 ****  0
   12 C10       -0.9962    -1.6423     1.3722 C.2        1 ****  0
   13 C11        0.0349    -2.4496     1.9531 C.3        1 ****  0
   14 O1        -2.0959    -1.5186     1.9243 O.2        1 ****  0
   15 C12       -0.3093    -3.1355     3.2722 C.3        1 ****  0
   16 N2         0.8387    -4.0034     3.7617 N.3        1 ****  0
   17 C13        2.1003    -3.2482     4.1043 C.3        1 ****  0
   18 C14        2.8848    -2.8298     2.8402 C.3        1 ****  0
   19 C15        3.1940    -4.0194     1.8652 C.3        1 ****  0
   20 C16        1.8992    -4.8357     1.5896 C.3        1 ****  0
   21 C17        1.1368    -5.2041     2.8901 C.3        1 ****  0
   22 C18        4.4697    -4.8736     2.2540 C.3        1 ****  0
   23 C19        3.6110    -5.7664     4.5018 C.ar       1 ****  0
   24 C20        3.8371    -6.3904     5.7189 C.ar       1 ****  0
   25 C21        5.1068    -6.8598     6.0217 C.ar       1 ****  0
   26 C22        6.1373    -6.7027     5.1040 C.ar       1 ****  0
   27 C23        5.9022    -6.0641     3.8936 C.ar       1 ****  0
   28 C24        4.6355    -5.5865     3.5851 C.ar       1 ****  0
   29 O2         5.1722    -0.2458     1.3954 O.3        1 ****  0
   30 C25        5.4630    -1.5915     1.0540 C.3        1 ****  0
   31 H1         3.1392    -1.7273     0.3505 H          1 ****  0
   32 H2         2.0651     3.0119     1.0190 H          1 ****  0
   33 H3         4.2373     2.1444     1.7364 H          1 ****  0
   34 H4         0.9455    -2.1838    -0.3850 H          1 ****  0
   35 H5         0.5083    -0.9488    -1.5432 H          1 ****  0
   36 H6        -2.6689    -0.7376    -0.2769 H          1 ****  0
   37 H7        -1.5346    -0.1910    -1.4903 H          1 ****  0
   38 H8        -2.5271     1.6568    -0.1344 H          1 ****  0
   39 H9        -1.7237     0.9694     1.2584 H          1 ****  0
   40 H10        0.9264    -1.8264     2.1014 H          1 ****  0
   41 H11        0.3331    -3.2167     1.2223 H          1 ****  0
   42 H12       -1.1853    -3.7483     3.1379 H          1 ****  0
   43 H13       -0.5315    -2.3855     4.0172 H          1 ****  0
   44 H14        1.8427    -2.3634     4.6728 H          1 ****  0
   45 H15        2.7302    -3.8692     4.7238 H          1 ****  0
   46 H16        3.8218    -2.3652     3.1407 H          1 ****  0
   47 H17        2.3152    -2.0693     2.3038 H          1 ****  0
   48 H18        3.4752    -3.5697     0.8995 H          1 ****  0
   49 H19        2.1568    -5.7448     1.0600 H          1 ****  0
   50 H20        1.2439    -4.2578     0.9447 H          1 ****  0
   51 H21        0.2051    -5.6938     2.6284 H          1 ****  0
   52 H22        1.7276    -5.9184     3.4587 H          1 ****  0
   53 H23        5.3853    -4.2173     2.1053 H          1 ****  0
   54 H24        4.6336    -5.6458     1.4327 H          1 ****  0
   55 H25        2.6276    -5.4171     4.2655 H          1 ****  0
   56 H26        3.0375    -6.5091     6.4200 H          1 ****  0
   57 H27        5.2916    -7.3412     6.9593 H          1 ****  0
   58 H28        7.1148    -7.0748     5.3302 H          1 ****  0
   59 H29        6.7023    -5.9392     3.1943 H          1 ****  0
   60 H30        5.3045    -1.6945    -0.0080 H          1 ****  0
   61 H31        4.7433    -2.2141     1.5618 H          1 ****  0
   62 H32        6.4356    -1.8480     1.3167 H          1 ****  0
@<TRIPOS>BOND
    1     1     2 ar
    2     1     6 ar
    3     1    29 1
    4     2     3 ar
    5     2    31 1
    6     3     4 ar
    7     3     7 1
    8     4     5 ar
    9     4    11 1
   10     5     6 ar
   11     5    32 1
   12     6    33 1
   13     7     8 1
   14     7    34 1
   15     7    35 1
   16     8     9 1
   17     8    12 am
   18     9    10 1
   19     9    36 1
   20     9    37 1
   21    10    11 1
   22    10    38 1
   23    10    39 1
   24    12    13 1
   25    12    14 2
   26    13    15 1
   27    13    40 1
   28    13    41 1
   29    15    16 1
   30    15    42 1
   31    15    43 1
   32    16    17 1
   33    16    21 1
   34    17    18 1
   35    17    44 1
   36    17    45 1
   37    18    19 1
   38    18    46 1
   39    18    47 1
   40    19    20 1
   41    19    22 1
   42    19    48 1
   43    20    21 1
   44    20    49 1
   45    20    50 1
   46    21    51 1
   47    21    52 1
   48    22    28 1
   49    22    53 1
   50    22    54 1
   51    23    24 ar
   52    23    28 ar
   53    23    55 1
   54    24    25 ar
   55    24    56 1
   56    25    26 ar
   57    25    57 1
   58    26    27 ar
   59    26    58 1
   60    27    28 ar
   61    27    59 1
   62    29    30 1
   63    30    60 1
   64    30    61 1
   65    30    62 1
@<TRIPOS>SUBSTRUCTURE
1   ****   1
@<TRIPOS>MOLECULE
1hdc
89  93  1  0  0
SMALL
FORMAL_CHARGES
@<TRIPOS>ATOM
    1 C1         1.5012     2.9656    -2.7172 C.3        1 ****  0
    2 C2        -1.6166    -0.0974     0.7123 C.3        1 ****  0
    3 C3        -2.5007     1.3344     0.9470 C.3        1 ****  0
    4 C4        -2.3077     2.2046    -0.4508 C.3        1 ****  0
    5 C5        -0.8982     2.1186    -1.1796 C.3        1 ****  0
    6 C6        -0.9617     1.3402    -2.5467 C.3        1 ****  0
    7 C7         3.6350    -1.0920    -1.3515 C.3        1 ****  0
    8 C8         2.1574    -0.7756    -1.6738 C.3        1 ****  0
    9 C9         1.2484     0.6406    -1.0187 C.3        1 ****  0
   10 C10        0.8540     2.2392    -1.4566 C.3        1 ****  0
   11 C11        2.2658     0.0855    -0.1006 C.2        1 ****  0
   12 C12        2.0287    -1.1912     0.5334 C.2        1 ****  0
   13 C13       -0.2258    -1.6180    -4.4164 C.2        1 ****  0
   14 C14        0.2734    -1.7903    -2.9568 C.3        1 ****  0
   15 C15        1.8099    -2.7858    -2.2821 C.3        1 ****  0
   16 C16        3.0657    -4.6227     2.6969 C.3        1 ****  0
   17 C17        2.6152    -4.5091     1.2055 C.3        1 ****  0
   18 C18        0.8719    -3.5429    -0.3996 C.3        1 ****  0
   19 C19        1.0095     2.6805     0.4134 C.3        1 ****  0
   20 C20       -0.1606    -4.0597     0.8097 C.3        1 ****  0
   21 C21       -0.1240    -5.5001     1.3109 C.3        1 ****  0
   22 C22        0.6565    -6.3589     0.2965 C.3        1 ****  0
   23 C23        2.1099    -5.8567     0.2139 C.3        1 ****  0
   24 C24       -3.3654     2.6873    -1.4670 C.3        1 ****  0
   25 C25       -2.2641     3.1932     0.7366 C.3        1 ****  0
   26 C26        1.4601    -0.3407    -3.3200 C.3        1 ****  0
   27 C27       -0.5641    -2.6317    -1.8751 C.3        1 ****  0
   28 C28        3.6304    -3.9269    -0.2066 C.3        1 ****  0
   29 C29       -3.7259     1.5862     2.1104 C.2        1 ****  0
   30 C30       -4.8878     1.7518     3.0500 C.3        1 ****  0
   31 C31       -4.4567     2.5415     4.3009 C.3        1 ****  0
   32 C32       -5.6344     2.6948     5.2258 C.2        1 ****  0.0000
   33 C33       -1.5325    -6.0128     1.4192 C.2        1 ****  0.0000
   34 C34        0.5455    -5.5627     2.6945 C.3        1 ****  0
   35 O1        -3.9228     0.8814     0.8928 O.3        1 ****  0
   36 O2         3.2137     0.7832     0.2777 O.2        1 ****  0
   37 O3        -2.6247     2.0688     2.4217 O.2        1 ****  0
   38 O4        -5.5082     3.3004     6.2955 O.co2      1 ****  -0.50
   39 O5        -6.8390     2.1662     4.8837 O.co2      1 ****  -0.50
   40 O6        -1.7450    -7.1412     1.8767 O.co2      1 ****  -0.50
   41 O7        -2.5715    -5.2337     1.0221 O.co2      1 ****  -0.50
   42 H1         0.3286     0.1735     1.5577 H          1 ****  0
   43 H2        -0.7725     1.5479     1.7856 H          1 ****  0
   44 H3        -1.2893    -0.8799     0.0120 H          1 ****  0
   45 H4        -2.0083    -0.5682     1.6261 H          1 ****  0
   46 H5        -2.2492     1.9044     1.8536 H          1 ****  0
   47 H6        -0.6021     3.1462    -1.4374 H          1 ****  0
   48 H7        -1.9324     1.5286    -3.0286 H          1 ****  0
   49 H8        -0.1583     1.6969    -3.2080 H          1 ****  0
   50 H9        -1.4311    -0.4560    -1.4754 H          1 ****  0
   51 H10       -1.0993    -0.6894    -3.2243 H          1 ****  0
   52 H11        1.6956     1.3539    -1.7266 H          1 ****  0
   53 H12        2.4840    -1.3930     1.5142 H          1 ****  0
   54 H13        1.5820    -2.7425    -3.3574 H          1 ****  0
   55 H14        2.8195    -2.3941    -2.0892 H          1 ****  0
   56 H15        0.6750    -4.6309    -1.8697 H          1 ****  0
   57 H16        2.3592    -4.9189    -2.4002 H          1 ****  0
   58 H17        0.4706    -3.5922    -1.4227 H          1 ****  0
   59 H18        1.8148     2.3257     1.0735 H          1 ****  0
   60 H19        0.3605     3.3938     0.9424 H          1 ****  0
   61 H20        1.4806     3.2193    -0.4219 H          1 ****  0
   62 H21       -0.6930    -4.0252    -0.1522 H          1 ****  0
   63 H22       -0.7044    -3.4378     1.5361 H          1 ****  0
   64 H23        0.6498    -7.4093     0.6229 H          1 ****  0
   65 H24        0.1845    -6.2786    -0.6938 H          1 ****  0
   66 H25        2.6758    -6.4982    -0.4776 H          1 ****  0
   67 H26        2.5711    -5.9179     1.2107 H          1 ****  0
   68 H27       -4.3549     2.7558    -0.9915 H          1 ****  0
   69 H28       -3.4099     2.0075    -2.3305 H          1 ****  0
   70 H29       -3.0767     3.6876    -1.8222 H          1 ****  0
   71 H30       -1.5481     2.8233     1.4853 H          1 ****  0
   72 H31       -3.2640     3.2524     1.1911 H          1 ****  0
   73 H32       -1.9550     4.1889     0.3860 H          1 ****  0
   74 H33        1.3878     0.6797    -3.7244 H          1 ****  0
   75 H34        1.0868    -1.0658    -4.0582 H          1 ****  0
   76 H35        2.5187    -0.5617    -3.1187 H          1 ****  0
   77 H36       -0.7138    -2.6213    -2.9648 H          1 ****  0
   78 H37       -1.4073    -2.1354    -1.3723 H          1 ****  0
   79 H38       -0.5295    -3.6790    -1.5405 H          1 ****  0
   80 H39        3.7166    -2.8801    -0.5334 H          1 ****  0
   81 H40        4.2720    -4.5673    -0.8297 H          1 ****  0
   82 H41        3.9669    -3.9996     0.8382 H          1 ****  0
   83 H42       -5.6963     2.2941     2.5379 H          1 ****  0
   84 H43       -5.2559     0.7609     3.3543 H          1 ****  0
   85 H44       -4.0944     3.5361     4.0014 H          1 ****  0
   86 H45       -3.6525     1.9983     4.8188 H          1 ****  0
   87 H46       -0.0254    -4.9429     3.4016 H          1 ****  0
   88 H47        1.5720    -5.1749     2.6182 H          1 ****  0
   89 H48        0.5689    -6.6033     3.0505 H          1 ****  0
@<TRIPOS>BOND
    1     1     2 1
    2     1    10 1
    3     1    42 1
    4     1    43 1
    5     2     3 1
    6     2    44 1
    7     2    45 1
    8     3     4 1
    9     3    35 1
   10     3    46 1
   11     4    24 1
   12     4    25 1
   13     5     4 1
   14     5     6 1
   15     5    10 1
   16     5    47 1
   17     6     7 1
   18     6    48 1
   19     6    49 1
   20     7     8 1
   21     7    50 1
   22     7    51 1
   23     8     9 1
   24     8    14 1
   25     8    26 1
   26     9    10 1
   27     9    11 1
   28     9    52 1
   29    10    19 1
   30    11    12 1
   31    11    36 2
   32    12    13 2
   33    12    53 1
   34    13    14 1
   35    14    15 1
   36    14    27 1
   37    15    16 1
   38    15    54 1
   39    15    55 1
   40    16    17 1
   41    16    56 1
   42    16    57 1
   43    17    18 1
   44    17    23 1
   45    17    28 1
   46    18    13 1
   47    18    20 1
   48    18    58 1
   49    19    59 1
   50    19    60 1
   51    19    61 1
   52    20    21 1
   53    20    62 1
   54    20    63 1
   55    21    22 1
   56    21    33 1
   57    21    34 1
   58    22    23 1
   59    22    64 1
   60    22    65 1
   61    23    66 1
   62    23    67 1
   63    24    68 1
   64    24    69 1
   65    24    70 1
   66    25    71 1
   67    25    72 1
   68    25    73 1
   69    26    74 1
   70    26    75 1
   71    26    76 1
   72    27    77 1
   73    27    78 1
   74    27    79 1
   75    28    80 1
   76    28    81 1
   77    28    82 1
   78    29    30 1
   79    29    35 1
   80    29    37 2
   81    30    31 1
   82    30    83 1
   83    30    84 1
   84    31    32 1
   85    31    85 1
   86    31    86 1
   87    32    38 ar
   88    32    39 ar
   89    33    40 ar
   90    33    41 ar
   91    34    87 1
   92    34    88 1
   93    34    89 1
@<TRIPOS>SUBSTRUCTURE
1   ****   1
@<TRIPOS>MOLECULE
1hfc
51  51  1  0  0
SMALL
FORMAL_CHARGES
@<TRIPOS>ATOM
    1 C1         9.6537    -1.8003     1.9274 C.2        1 ****  0
    2 C2         8.4146    -0.9462     1.8724 C.3        1 ****  0
    3 C3         7.4087    -0.7357     0.5845 C.3        1 ****  0
    4 C4         7.6035    -2.0788    -0.3573 C.3        1 ****  0
    5 C5         7.6604    -0.8801    -1.3709 C.3        1 ****  0
    6 C6         8.8529     0.0752    -1.1293 C.3        1 ****  0
    7 C7         7.7970    -1.4502    -2.7931 C.3        1 ****  0
    8 C8         6.0183    -0.8625     1.1609 C.2        1 ****  0
    9 C9         3.6287    -0.6014     0.6439 C.3        1 ****  0
   10 C10        3.2960    -0.3430     2.0882 C.2        1 ****  0
   11 C11        2.5964    -1.1458     4.2910 C.3        1 ****  0
   12 C12        2.5110    -1.4499     0.0030 C.3        1 ****  0
   13 C13        1.2084    -0.6974    -0.0001 C.ar       1 ****  0
   14 C14        0.0043    -1.3930    -0.0003 C.ar       1 ****  0
   15 C15       -1.1987    -0.6980    -0.0003 C.ar       1 ****  0
   16 C16       -1.1983     0.6923    -0.0001 C.ar       1 ****  0
   17 C17        0.0048     1.3871     0.0001 C.ar       1 ****  0
   18 C18        1.2089     0.6915     0.0001 C.ar       1 ****  0
   19 N1        10.8529    -1.2491     2.3769 N.am       1 ****  0
   20 N2         4.8479    -1.3564     0.5792 N.am       1 ****  0
   21 N3         2.8895    -1.3929     2.9094 N.am       1 ****  0
   22 O1        11.9511    -1.9881     2.4025 O.3        1 ****  -1
   23 O2         9.6160    -2.9856     1.5779 O.2        1 ****  0
   24 O3         6.0271     0.2525     1.6938 O.2        1 ****  0
   25 O4         3.3934     0.7996     2.5492 O.2        1 ****  0
   26 H1         8.0887    -0.7125     2.8967 H          1 ****  0
   27 H2         8.6429    -0.0065     1.3482 H          1 ****  0
   28 H3         7.5451     0.2111     0.0414 H          1 ****  0
   29 H4         8.5722    -2.5995    -0.3748 H          1 ****  0
   30 H5         6.8485    -2.7983    -0.7071 H          1 ****  0
   31 H6         6.7358    -0.3005    -1.2326 H          1 ****  0
   32 H7         9.7766    -0.5175    -1.2041 H          1 ****  0
   33 H8         8.7692     0.4616    -0.1028 H          1 ****  0
   34 H9         8.8589     0.9000    -1.8571 H          1 ****  0
   35 H10        6.9304    -2.0855    -3.0282 H          1 ****  0
   36 H11        8.7217    -2.0404    -2.8742 H          1 ****  0
   37 H12        7.8378    -0.6180    -3.5113 H          1 ****  0
   38 H13        3.7309     0.3573     0.1143 H          1 ****  0
   39 H14        1.8223    -0.3644     4.2833 H          1 ****  0
   40 H15        3.5111    -0.6921     4.7002 H          1 ****  0
   41 H16        2.2847    -2.0397     4.8512 H          1 ****  0
   42 H17        2.3893    -2.3832     0.5724 H          1 ****  0
   43 H18        2.7898    -1.6971    -1.0320 H          1 ****  0
   44 H19        0.0042    -2.4930    -0.0005 H          1 ****  0
   45 H20       -2.1515    -1.2478    -0.0004 H          1 ****  0
   46 H21       -2.1508     1.2424    -0.0001 H          1 ****  0
   47 H22        0.0048     2.4871     0.0003 H          1 ****  0
   48 H23        2.1617     1.2413     0.0003 H          1 ****  0
   49 H24       10.8844    -0.2680     2.6888 H          1 ****  0
   50 H25        4.8600    -2.2685     0.1008 H          1 ****  0
   51 H26        2.7998    -2.3442     2.5247 H          1 ****  0
@<TRIPOS>BOND
    1     1     2 1
    2     1    19 am
    3     1    23 2
    4     2     3 1
    5     2    26 1
    6     2    27 1
    7     3     4 1
    8     3     8 1
    9     3    28 1
   10     4     5 1
   11     4    29 1
   12     4    30 1
   13     5     6 1
   14     5     7 1
   15     5    31 1
   16     6    32 1
   17     6    33 1
   18     6    34 1
   19     7    35 1
   20     7    36 1
   21     7    37 1
   22     8    20 am
   23     8    24 2
   24     9    10 1
   25     9    12 1
   26     9    20 1
   27     9    38 1
   28    10    21 am
   29    10    25 2
   30    11    21 1
   31    11    39 1
   32    11    40 1
   33    11    41 1
   34    12    13 1
   35    12    42 1
   36    12    43 1
   37    13    14 ar
   38    13    18 ar
   39    14    15 ar
   40    14    44 1
   41    15    16 ar
   42    15    45 1
   43    16    17 ar
   44    16    46 1
   45    17    18 ar
   46    17    47 1
   47    18    48 1
   48    19    22 1
   49    19    49 1
   50    20    50 1
   51    21    51 1
@<TRIPOS>SUBSTRUCTURE
1   ****   1
@<TRIPOS>MOLECULE
1hiv
120  124  1  0  0
SMALL
FORMAL_CHARGES
@<TRIPOS>ATOM
    1 C1         4.8008    -1.3209    -0.0785 C.2        1 ****  0
    2 C2         3.5412    -0.5101    -0.0008 C.3        1 ****  0
    3 C3         1.2156    -0.7074    -0.0002 C.ar       1 ****  0
    4 C4         1.2201     0.6823     0.0000 C.ar       1 ****  0
    5 C5         0.0189     1.3810     0.0001 C.ar       1 ****  0
    6 C6        -1.1869     0.6903    -0.0001 C.ar       1 ****  0
    7 C7        -1.1913    -0.6991    -0.0002 C.ar       1 ****  0
    8 C8        -2.3972    -1.3894    -0.0004 C.ar       1 ****  0
    9 C9        -2.4014    -2.7790    -0.0005 C.ar       1 ****  0
   10 C10       -1.2000    -3.4778    -0.0005 C.ar       1 ****  0
   11 C11        0.0060    -2.7874    -0.0004 C.ar       1 ****  0
   12 C12        0.0100    -1.3979    -0.0002 C.ar       1 ****  0
   13 O1         4.7239    -2.5550    -0.0728 O.2        1 ****  0
   14 O2         2.4209    -1.4086    -0.0001 O.3        1 ****  0
   15 N1         6.0558    -0.6850    -0.1860 N.am       1 ****  0
   16 C13        7.2396    -1.4583    -0.4910 C.3        1 ****  0
   17 C14        8.4646    -0.5737    -0.6068 C.2        1 ****  0
   18 O3         8.3806     0.6297    -0.3379 O.2        1 ****  0
   19 C15        7.0122    -2.2489    -1.7968 C.3        1 ****  0
   20 C16        6.6248    -1.3085    -2.9158 C.ar       1 ****  0
   21 N2         6.5770     0.0006    -2.8274 N.ar       1 ****  0
   22 C17        6.2363    -1.7223    -4.1674 C.ar       1 ****  0
   23 C18        6.1605     0.4349    -4.0135 C.ar       1 ****  0
   24 N3         5.9544    -0.6034    -4.8235 N.ar       1 ****  0
   25 N4         9.7081    -1.1244    -0.9955 N.am       1 ****  0
   26 C19       10.8832    -1.0867    -1.9035 C.3        1 ****  0
   27 C20       10.8107     0.4129    -2.6040 C.3        1 ****  0
   28 C21       10.9128    -0.5459    -3.8740 C.3        1 ****  0
   29 C22        9.8088    -1.6161    -3.9268 C.3        1 ****  0
   30 C23       12.2866    -1.2067    -4.0887 C.3        1 ****  0
   31 C24        9.8341    -2.3125    -5.3004 C.3        1 ****  0
   32 C25       12.3119    -1.9031    -5.4623 C.3        1 ****  0
   33 C26       11.2078    -2.9763    -5.5147 C.3        1 ****  0
   34 C27       12.0396    -0.3169    -0.0648 C.3        1 ****  0
   35 O4        12.0528    -1.6898     0.3991 O.3        1 ****  0
   36 C28       13.4845    -0.1167    -0.8686 C.3        1 ****  0
   37 C29       14.8023    -0.2259     0.0519 C.3        1 ****  0
   38 C30       14.8514    -1.7799     0.5879 C.3        1 ****  0
   39 C31       14.9671    -0.8107     1.7815 C.3        1 ****  0
   40 C32       16.0093    -2.8015     0.6137 C.3        1 ****  0
   41 O5        13.5714     0.6165    -2.0865 O.3        1 ****  0
   42 C33       16.0240    -0.0841    -0.9382 C.2        1 ****  0
   43 O6        15.8980     1.0289    -1.4596 O.2        1 ****  0
   44 N5        17.3092    -0.5114    -0.5738 N.am       1 ****  0
   45 C34       18.4513     0.3385    -0.7906 C.3        1 ****  0
   46 C35       19.6178    -0.4871    -1.2494 C.2        1 ****  0
   47 O7        19.4333    -1.6072    -1.7380 O.2        1 ****  0
   48 C36       18.8491     1.0669     0.5102 C.3        1 ****  0
   49 C37       19.1533     0.0166     1.5953 C.3        1 ****  0
   50 C38       17.7134     1.9918     0.9893 C.3        1 ****  0
   51 C39       19.5712     0.7222     2.8966 C.3        1 ****  0
   52 N6        20.9147     0.0161    -1.1151 N.am       1 ****  0
   53 C40       22.0451    -0.7750    -1.5029 C.3        1 ****  0
   54 C41       23.2756     0.0856    -1.4853 C.ar       1 ****  0
   55 C42       23.1628     1.4396    -1.1903 C.ar       1 ****  0
   56 C43       24.3026     2.2310    -1.1792 C.ar       1 ****  0
   57 C44       25.5248     1.6394    -1.4651 C.ar       1 ****  0
   58 C45       25.5711     0.2805    -1.7522 C.ar       1 ****  0
   59 N7        24.4615    -0.4506    -1.7548 N.ar       1 ****  0
   60 H1         3.5399     0.0819     0.9263 H          1 ****  0
   61 H2         3.4771     0.1584    -0.8721 H          1 ****  0
   62 H3         2.1745     1.2292     0.0001 H          1 ****  0
   63 H4         0.0225     2.4810     0.0002 H          1 ****  0
   64 H5        -2.1378     1.2434    -0.0000 H          1 ****  0
   65 H6        -3.3479    -0.8362    -0.0004 H          1 ****  0
   66 H7        -3.3557    -3.3260    -0.0006 H          1 ****  0
   67 H8        -1.2038    -4.5778    -0.0006 H          1 ****  0
   68 H9         0.9568    -3.3405    -0.0004 H          1 ****  0
   69 H10        6.1292     0.3329    -0.0468 H          1 ****  0
   70 H11        7.4222    -2.1616     0.3348 H          1 ****  0
   71 H12        6.2082    -2.9840    -1.6443 H          1 ****  0
   72 H13        7.9375    -2.7776    -2.0692 H          1 ****  0
   73 H14        6.8140     0.5749    -2.0059 H          1 ****  0
   74 H15        6.1729    -2.7542    -4.5430 H          1 ****  0
   75 H16        6.0093     1.4902    -4.2848 H          1 ****  0
   76 H17        9.7934    -2.1386    -1.1540 H          1 ****  0
   77 H18       10.9040    -1.9074    -2.6357 H          1 ****  0
   78 H19       11.6219     1.1533    -2.6654 H          1 ****  0
   79 H20        9.8757     0.9873    -2.6801 H          1 ****  0
   80 H21       10.7644     0.1556    -4.7083 H          1 ****  0
   81 H22        8.8283    -1.1409    -3.7755 H          1 ****  0
   82 H23        9.9814    -2.3606    -3.1356 H          1 ****  0
   83 H24       13.0729    -0.4382    -4.0532 H          1 ****  0
   84 H25       12.4646    -1.9504    -3.2980 H          1 ****  0
   85 H26        9.0470    -3.0800    -5.3371 H          1 ****  0
   86 H27        9.6591    -1.5697    -6.0926 H          1 ****  0
   87 H28       13.2919    -2.3786    -5.6155 H          1 ****  0
   88 H29       12.1374    -1.1594    -6.2538 H          1 ****  0
   89 H30       11.2270    -3.4732    -6.4959 H          1 ****  0
   90 H31       11.3829    -3.7204    -4.7238 H          1 ****  0
   91 H32       11.8870     0.4153     0.7418 H          1 ****  0
   92 H33       11.2953    -2.3268     0.3790 H          1 ****  0
   93 H34       13.3938     0.5642    -0.0094 H          1 ****  0
   94 H35       14.8122     0.5274     0.8534 H          1 ****  0
   95 H36       13.9149    -2.3514     0.6672 H          1 ****  0
   96 H37       14.0932    -0.1429     1.7920 H          1 ****  0
   97 H38       15.8822    -0.2099     1.6731 H          1 ****  0
   98 H39       15.0083    -1.3805     2.7215 H          1 ****  0
   99 H40       16.9526    -2.2546     0.4688 H          1 ****  0
  100 H41       15.8717    -3.4971    -0.2273 H          1 ****  0
  101 H42       16.0263    -3.3504     1.5669 H          1 ****  0
  102 H43       12.7605     1.1757    -2.1861 H          1 ****  0
  103 H44       17.4372    -1.4404    -0.1478 H          1 ****  0
  104 H45       18.1821     1.0816    -1.5557 H          1 ****  0
  105 H46       19.7388     1.6847     0.3179 H          1 ****  0
  106 H47       19.9702    -0.6368     1.2553 H          1 ****  0
  107 H48       18.2542    -0.5895     1.7806 H          1 ****  0
  108 H49       16.8122     1.3869     1.1679 H          1 ****  0
  109 H50       17.5008     2.7320     0.2039 H          1 ****  0
  110 H51       18.0091     2.5047     1.9164 H          1 ****  0
  111 H52       18.7542     1.3750     3.2376 H          1 ****  0
  112 H53       20.4702     1.3285     2.7116 H          1 ****  0
  113 H54       19.7880    -0.0289     3.6704 H          1 ****  0
  114 H55       21.0592     0.9623    -0.7348 H          1 ****  0
  115 H56       22.1703    -1.6089    -0.7965 H          1 ****  0
  116 H57       21.8883    -1.1701    -2.5174 H          1 ****  0
  117 H58       22.1794     1.8794    -0.9677 H          1 ****  0
  118 H59       24.2387     3.3047    -0.9487 H          1 ****  0
  119 H60       26.4468     2.2394    -1.4644 H          1 ****  0
  120 H61       26.5366    -0.1951    -1.9798 H          1 ****  0
@<TRIPOS>BOND
    1     1     2 1
    2     1    13 2
    3     1    15 am
    4     2    14 1
    5     2    60 1
    6     2    61 1
    7     3     4 ar
    8     3    12 ar
    9     3    14 1
   10     4     5 ar
   11     4    62 1
   12     5     6 ar
   13     5    63 1
   14     6     7 ar
   15     6    64 1
   16     7     8 ar
   17     7    12 ar
   18     8     9 ar
   19     8    65 1
   20     9    10 ar
   21     9    66 1
   22    10    11 ar
   23    10    67 1
   24    11    12 ar
   25    11    68 1
   26    15    69 1
   27    16    15 1
   28    16    17 1
   29    16    19 1
   30    16    70 1
   31    17    18 2
   32    17    25 am
   33    19    20 1
   34    19    71 1
   35    19    72 1
   36    20    21 ar
   37    20    22 ar
   38    21    23 ar
   39    21    73 1
   40    22    24 ar
   41    22    74 1
   42    23    24 ar
   43    23    75 1
   44    25    76 1
   45    26    25 1
   46    26    27 1
   47    26    34 1
   48    26    77 1
   49    27    28 1
   50    27    78 1
   51    27    79 1
   52    28    29 1
   53    28    30 1
   54    28    80 1
   55    29    31 1
   56    29    81 1
   57    29    82 1
   58    30    32 1
   59    30    83 1
   60    30    84 1
   61    31    33 1
   62    31    85 1
   63    31    86 1
   64    32    33 1
   65    32    87 1
   66    32    88 1
   67    33    89 1
   68    33    90 1
   69    34    35 1
   70    34    36 1
   71    34    91 1
   72    35    92 1
   73    36    37 1
   74    36    41 1
   75    36    93 1
   76    37    38 1
   77    37    42 1
   78    37    94 1
   79    38    39 1
   80    38    40 1
   81    38    95 1
   82    39    96 1
   83    39    97 1
   84    39    98 1
   85    40    99 1
   86    40   100 1
   87    40   101 1
   88    41   102 1
   89    42    43 2
   90    42    44 am
   91    44   103 1
   92    45    44 1
   93    45    46 1
   94    45    48 1
   95    45   104 1
   96    46    47 2
   97    46    52 am
   98    48    49 1
   99    48    50 1
  100    48   105 1
  101    49    51 1
  102    49   106 1
  103    49   107 1
  104    50   108 1
  105    50   109 1
  106    50   110 1
  107    51   111 1
  108    51   112 1
  109    51   113 1
  110    52    53 1
  111    52   114 1
  112    53    54 1
  113    53   115 1
  114    53   116 1
  115    54    55 ar
  116    54    59 ar
  117    55    56 ar
  118    55   117 1
  119    56    57 ar
  120    56   118 1
  121    57    58 ar
  122    57   119 1
  123    58    59 ar
  124    58   120 1
@<TRIPOS>SUBSTRUCTURE
1   ****   1
@<TRIPOS>MOLECULE
1hos
106  109  1  0  0
SMALL
FORMAL_CHARGES
@<TRIPOS>ATOM
    1 C1         4.8130    -1.2860     0.0442 C.2        1 ****  0
    2 O1         4.7484    -2.5206     0.0556 O.2        1 ****  0
    3 O2         3.6271    -0.5395     0.0111 O.3        1 ****  0
    4 C2         2.5100    -1.4491    -0.0003 C.3        1 ****  0
    5 C3         1.2084    -0.6974    -0.0001 C.ar       1 ****  0
    6 C4         1.2089     0.6915     0.0001 C.ar       1 ****  0
    7 C5         0.0043    -1.3930    -0.0003 C.ar       1 ****  0
    8 C6         0.0048     1.3871     0.0001 C.ar       1 ****  0
    9 C7        -1.1987    -0.6980    -0.0003 C.ar       1 ****  0
   10 C8        -1.1983     0.6923    -0.0001 C.ar       1 ****  0
   11 N1         6.0776    -0.6452     0.0705 N.am       1 ****  0
   12 C9         7.2315    -0.6955     1.0187 C.3        1 ****  0
   13 C10        7.2497    -2.1957     1.5624 C.3        1 ****  0
   14 C11        7.2457    -1.1838     2.7231 C.3        1 ****  0
   15 C12        8.4292    -3.1736     1.7132 C.3        1 ****  0
   16 C13        8.5319    -0.5437     0.0851 C.2        1 ****  0
   17 O3         8.3773     0.6529    -0.1845 O.2        1 ****  0
   18 N2         9.8569    -1.0849     0.2135 N.am       1 ****  0
   19 C14       10.9502    -1.1387    -0.8220 C.3        1 ****  0
   20 C15       10.8923     0.3469    -1.5379 C.3        1 ****  0
   21 C16       10.6576    -0.6192    -2.6933 C.ar       1 ****  0
   22 C17       10.3331    -1.9529    -2.4768 C.ar       1 ****  0
   23 C18       10.6839    -0.1128    -3.9892 C.ar       1 ****  0
   24 C19       10.0359    -2.7809    -3.5537 C.ar       1 ****  0
   25 C20       10.3869    -0.9400    -5.0651 C.ar       1 ****  0
   26 C21       10.0628    -2.2744    -4.8471 C.ar       1 ****  0
   27 P1        12.4981    -1.2189     0.1085 P.3        1 ****  0
   28 O4        12.5173    -1.6466     1.4210 O.2        1 ****  0
   29 O5        12.4707    -2.4807    -0.7714 O.3        1 ****  0
   30 N3        15.1690    -1.0991     0.0645 N.am       1 ****  0
   31 C22       13.9502    -0.3087    -0.1570 C.3        1 ****  0
   32 C23       14.0599     0.4622    -1.5225 C.3        1 ****  0
   33 C24       14.1948    -0.3838    -2.7832 C.ar       1 ****  0
   34 C25       14.1934    -1.7727    -2.7416 C.ar       1 ****  0
   35 C26       14.3444     0.2738    -4.0008 C.ar       1 ****  0
   36 C27       14.3408    -2.5049    -3.9146 C.ar       1 ****  0
   37 C28       14.4917    -0.4578    -5.1726 C.ar       1 ****  0
   38 C29       14.4899    -1.8475    -5.1293 C.ar       1 ****  0
   39 N4        18.9251    -0.4246     0.1787 N.am       1 ****  0
   40 C30       17.8183    -0.6229    -0.7972 C.3        1 ****  0
   41 C31       17.9109    -2.1195    -1.2326 C.3        1 ****  0
   42 C32       17.8665    -1.1796    -2.4562 C.3        1 ****  0
   43 C33       16.8390    -3.2104    -1.3440 C.3        1 ****  0
   44 C34       16.4637    -0.4707     0.0561 C.2        1 ****  0
   45 O6        16.5425     0.7633     0.0482 O.2        1 ****  0
   46 C35       22.5269    -1.0613     0.1337 C.3        1 ****  0
   47 C36       23.8068    -0.2691     0.1033 C.ar       1 ****  0
   48 C37       23.7776     1.1189     0.1014 C.ar       1 ****  0
   49 C38       24.9666     1.8393     0.0739 C.ar       1 ****  0
   50 C39       26.2131    -0.2203     0.0501 C.ar       1 ****  0
   51 C40       25.0251    -0.9401     0.0776 C.ar       1 ****  0
   52 C41       26.1836     1.1698     0.0482 C.ar       1 ****  0
   53 O7        21.3761    -0.1924     0.1565 O.3        1 ****  0
   54 C42       20.2296    -0.9952     0.1675 C.2        1 ****  0
   55 O8        20.3642    -2.2244     0.1613 O.2        1 ****  0
   56 H1         2.5565    -2.0939     0.8896 H          1 ****  0
   57 H2         2.5646    -2.0797    -0.9000 H          1 ****  0
   58 H3         2.1617     1.2413     0.0003 H          1 ****  0
   59 H4         0.0042    -2.4930    -0.0005 H          1 ****  0
   60 H5         0.0048     2.4871     0.0003 H          1 ****  0
   61 H6        -2.1515    -1.2478    -0.0004 H          1 ****  0
   62 H7        -2.1508     1.2424    -0.0001 H          1 ****  0
   63 H8         6.1377     0.3801    -0.0080 H          1 ****  0
   64 H9         7.1729     0.0464     1.8287 H          1 ****  0
   65 H10        6.3261    -2.7928     1.5863 H          1 ****  0
   66 H11        6.3613    -0.5350     2.6402 H          1 ****  0
   67 H12        8.1561    -0.5682     2.6753 H          1 ****  0
   68 H13        7.2170    -1.7223     3.6818 H          1 ****  0
   69 H14        9.3654    -2.6010     1.6390 H          1 ****  0
   70 H15        8.3884    -3.8958     0.8845 H          1 ****  0
   71 H16        8.3782    -3.6979     2.6788 H          1 ****  0
   72 H17        9.9708    -2.0526     0.5472 H          1 ****  0
   73 H18       10.8484    -1.9761    -1.5279 H          1 ****  0
   74 H19       11.7941     0.9373    -1.7575 H          1 ****  0
   75 H20       10.0546     1.0591    -1.5055 H          1 ****  0
   76 H21       10.3114    -2.3540    -1.4528 H          1 ****  0
   77 H22       10.9399     0.9430    -4.1618 H          1 ****  0
   78 H23        9.7795    -3.8366    -3.3816 H          1 ****  0
   79 H24       10.4081    -0.5394    -6.0893 H          1 ****  0
   80 H25        9.8277    -2.9294    -5.6990 H          1 ****  0
   81 H26       12.3934    -2.2126    -1.7213 H          1 ****  0
   82 H27       15.0959    -2.1135     0.2274 H          1 ****  0
   83 H28       13.8659     0.4719     0.6135 H          1 ****  0
   84 H29       14.9230     1.1422    -1.4704 H          1 ****  0
   85 H30       13.1730     1.1037    -1.6316 H          1 ****  0
   86 H31       14.0754    -2.2935    -1.7800 H          1 ****  0
   87 H32       14.3459     1.3732    -4.0353 H          1 ****  0
   88 H33       14.3394    -3.6044    -3.8806 H          1 ****  0
   89 H34       14.6097     0.0624    -6.1346 H          1 ****  0
   90 H35       14.6065    -2.4267    -6.0572 H          1 ****  0
   91 H36       18.8049     0.5950     0.2620 H          1 ****  0
   92 H37       17.8749     0.0496    -1.6658 H          1 ****  0
   93 H38       18.8861    -2.6275    -1.2044 H          1 ****  0
   94 H39       18.6885    -0.4520    -2.3865 H          1 ****  0
   95 H40       16.9059    -0.6439    -2.4692 H          1 ****  0
   96 H41       17.9727    -1.7678    -3.3797 H          1 ****  0
   97 H42       15.8497    -2.7300    -1.3227 H          1 ****  0
   98 H43       16.9294    -3.8775    -0.4740 H          1 ****  0
   99 H44       16.9640    -3.7818    -2.2756 H          1 ****  0
  100 H45       22.5153    -1.6994     1.0296 H          1 ****  0
  101 H46       22.4768    -1.7037    -0.7579 H          1 ****  0
  102 H47       22.8138     1.6487     0.1217 H          1 ****  0
  103 H48       24.9436     2.9391     0.0724 H          1 ****  0
  104 H49       27.1769    -0.7501     0.0298 H          1 ****  0
  105 H50       25.0479    -2.0398     0.0791 H          1 ****  0
  106 H51       27.1243     1.7396     0.0264 H          1 ****  0
@<TRIPOS>BOND
    1     1     2 2
    2     1     3 1
    3     1    11 am
    4     3     4 1
    5     4     5 1
    6     4    56 1
    7     4    57 1
    8     5     6 ar
    9     5     7 ar
   10     6     8 ar
   11     6    58 1
   12     7     9 ar
   13     7    59 1
   14     8    10 ar
   15     8    60 1
   16     9    10 ar
   17     9    61 1
   18    10    62 1
   19    11    63 1
   20    12    11 1
   21    12    13 1
   22    12    16 1
   23    12    64 1
   24    13    14 1
   25    13    15 1
   26    13    65 1
   27    14    66 1
   28    14    67 1
   29    14    68 1
   30    15    69 1
   31    15    70 1
   32    15    71 1
   33    16    17 2
   34    16    18 am
   35    18    72 1
   36    19    18 1
   37    19    20 1
   38    19    27 1
   39    19    73 1
   40    20    21 1
   41    20    74 1
   42    20    75 1
   43    21    22 ar
   44    21    23 ar
   45    22    24 ar
   46    22    76 1
   47    23    25 ar
   48    23    77 1
   49    24    26 ar
   50    24    78 1
   51    25    26 ar
   52    25    79 1
   53    26    80 1
   54    27    28 2
   55    27    29 1
   56    27    31 1
   57    29    81 1
   58    30    44 am
   59    30    82 1
   60    31    30 1
   61    31    32 1
   62    31    83 1
   63    32    33 1
   64    32    84 1
   65    32    85 1
   66    33    34 ar
   67    33    35 ar
   68    34    36 ar
   69    34    86 1
   70    35    37 ar
   71    35    87 1
   72    36    38 ar
   73    36    88 1
   74    37    38 ar
   75    37    89 1
   76    38    90 1
   77    39    54 am
   78    39    91 1
   79    40    39 1
   80    40    41 1
   81    40    44 1
   82    40    92 1
   83    41    42 1
   84    41    43 1
   85    41    93 1
   86    42    94 1
   87    42    95 1
   88    42    96 1
   89    43    97 1
   90    43    98 1
   91    43    99 1
   92    44    45 2
   93    46    47 1
   94    46    53 1
   95    46   100 1
   96    46   101 1
   97    47    48 ar
   98    47    51 ar
   99    48    49 ar
  100    48   102 1
  101    49    52 ar
  102    49   103 1
  103    50    51 ar
  104    50    52 ar
  105    50   104 1
  106    51   105 1
  107    52   106 1
  108    53    54 1
  109    54    55 2
@<TRIPOS>SUBSTRUCTURE
1   ****   1
@<TRIPOS>MOLECULE
1hpv
70  72  1  0  0
SMALL
FORMAL_CHARGES
@<TRIPOS>ATOM
    1 C1         8.2653   -10.0971     2.2580 C.3        1 ****  0
    2 C2         8.0184   -10.4773     0.0035 C.3        1 ****  0
    3 C3         6.1972    -8.3408     1.0114 C.2        1 ****  0
    4 C4         7.2238   -10.5202     1.2614 C.3        1 ****  0
    5 C5         4.5884    -6.2999     1.7246 C.3        1 ****  0
    6 C6         3.8263    -5.4610     0.6377 C.3        1 ****  0
    7 C7         5.9280    -5.4658     2.0827 C.3        1 ****  0
    8 C8         5.2222    -5.7036     3.4186 C.ar       1 ****  0
    9 C9         4.1377    -6.5641     3.5352 C.ar       1 ****  0
   10 C10        5.7209    -5.0586     4.5466 C.ar       1 ****  0
   11 C11        3.5507    -6.7807     4.7771 C.ar       1 ****  0
   12 C12        5.1345    -5.2750     5.7873 C.ar       1 ****  0
   13 C13        4.0491    -6.1363     5.9024 C.ar       1 ****  0
   14 C14        3.9455    -3.9326     0.4929 C.3        1 ****  0
   15 C15        1.5642    -3.7036     1.3734 C.3        1 ****  0
   16 C16        0.8050    -4.9377     0.7912 C.3        1 ****  0
   17 C17        1.1683    -0.6749    -0.0001 C.ar       1 ****  0
   18 C18        1.1690     0.7150     0.0001 C.ar       1 ****  0
   19 C19       -0.0344     1.4099     0.0001 C.ar       1 ****  0
   20 C20       -1.2380     0.7148    -0.0001 C.ar       1 ****  0
   21 C21       -1.2386    -0.6750    -0.0003 C.ar       1 ****  0
   22 C22       -0.0351    -1.3700    -0.0003 C.ar       1 ****  0
   23 C23       -0.3189    -5.3565     1.7540 C.3        1 ****  0
   24 C24        0.2191    -4.6426    -0.6021 C.3        1 ****  0
   25 C25        9.2612   -11.2565     0.4756 C.3        1 ****  0
   26 N1         5.0770    -7.5127     0.9878 N.am       1 ****  0
   27 N2         2.6607    -3.2248     0.5266 N.am       1 ****  0
   28 N3        -2.4747     1.4293    -0.0001 N.pl3      1 ****  0
   29 O1         6.0094    -9.7261     1.2543 O.3        1 ****  0
   30 O2         7.3171    -7.8503     0.8185 O.2        1 ****  0
   31 O3         3.2289    -6.0172    -0.5369 O.3        1 ****  0
   32 O4         3.3005    -1.5349    -1.3951 O.2        1 ****  0
   33 O5         3.6744    -0.8337     0.9221 O.2        1 ****  0
   34 O6         9.3873   -10.9529     1.9113 O.3        1 ****  0
   35 S1         2.7185    -1.5722     0.0046 S.O2       1 ****  0
   36 H1         7.9237   -10.3085     3.2821 H          1 ****  0
   37 H2         8.5289    -9.0395     2.1094 H          1 ****  0
   38 H3         7.5040   -11.0224    -0.8017 H          1 ****  0
   39 H4         8.2869    -9.4423    -0.2545 H          1 ****  0
   40 H5         6.7771   -11.5024     1.4752 H          1 ****  0
   41 H6         3.9642    -6.5097     2.6057 H          1 ****  0
   42 H7         3.1964    -5.6785     1.5129 H          1 ****  0
   43 H8         6.0262    -4.3815     1.9257 H          1 ****  0
   44 H9         6.9468    -5.8757     2.1458 H          1 ****  0
   45 H10        3.7430    -7.0746     2.6443 H          1 ****  0
   46 H11        6.5797    -4.3772     4.4557 H          1 ****  0
   47 H12        2.6920    -7.4621     4.8684 H          1 ****  0
   48 H13        5.5288    -4.7649     6.6786 H          1 ****  0
   49 H14        3.5849    -6.3076     6.8848 H          1 ****  0
   50 H15        4.4493    -3.7030    -0.4576 H          1 ****  0
   51 H16        4.5814    -3.5475     1.3036 H          1 ****  0
   52 H17        0.8479    -2.8818     1.5207 H          1 ****  0
   53 H18        1.9709    -3.9677     2.3607 H          1 ****  0
   54 H19        1.5284    -5.7591     0.6822 H          1 ****  0
   55 H20        2.1218     1.2647     0.0003 H          1 ****  0
   56 H21       -0.0345     2.5099     0.0003 H          1 ****  0
   57 H22       -2.1914    -1.2247    -0.0005 H          1 ****  0
   58 H23       -0.0351    -2.4700    -0.0005 H          1 ****  0
   59 H24       -1.0223    -4.5204     1.8811 H          1 ****  0
   60 H25        0.1148    -5.6203     2.7299 H          1 ****  0
   61 H26       -0.8527    -6.2258     1.3426 H          1 ****  0
   62 H27        1.0436    -4.3657    -1.2756 H          1 ****  0
   63 H28       -0.4722    -3.7913    -0.5165 H          1 ****  0
   64 H29       -0.3106    -5.5240    -0.9928 H          1 ****  0
   65 H30       10.1533   -10.9050    -0.0635 H          1 ****  0
   66 H31        9.1053   -12.3357     0.3309 H          1 ****  0
   67 H32        4.1379    -7.9267     1.0751 H          1 ****  0
   68 H33       -2.4748     2.4593     0.0001 H          1 ****  0
   69 H34       -3.3667     0.9144    -0.0002 H          1 ****  0
   70 H35        3.1330    -6.9968    -0.4303 H          1 ****  0
@<TRIPOS>BOND
    1     1     4 1
    2     1    34 1
    3     1    36 1
    4     1    37 1
    5     2     4 1
    6     2    25 1
    7     2    38 1
    8     2    39 1
    9     3    26 am
   10     3    29 1
   11     3    30 2
   12     4    29 1
   13     4    40 1
   14     5     6 1
   15     5     7 1
   16     5    26 1
   17     5    41 1
   18     6    14 1
   19     6    31 1
   20     6    42 1
   21     7     8 1
   22     7    43 1
   23     7    44 1
   24     8     9 ar
   25     8    10 ar
   26     9    11 ar
   27     9    45 1
   28    10    12 ar
   29    10    46 1
   30    11    13 ar
   31    11    47 1
   32    12    13 ar
   33    12    48 1
   34    13    49 1
   35    14    27 1
   36    14    50 1
   37    14    51 1
   38    15    16 1
   39    15    27 1
   40    15    52 1
   41    15    53 1
   42    16    23 1
   43    16    24 1
   44    16    54 1
   45    17    18 ar
   46    17    22 ar
   47    17    35 1
   48    18    19 ar
   49    18    55 1
   50    19    20 ar
   51    19    56 1
   52    20    21 ar
   53    20    28 1
   54    21    22 ar
   55    21    57 1
   56    22    58 1
   57    23    59 1
   58    23    60 1
   59    23    61 1
   60    24    62 1
   61    24    63 1
   62    24    64 1
   63    25    34 1
   64    25    65 1
   65    25    66 1
   66    26    67 1
   67    27    35 am
   68    28    68 1
   69    28    69 1
   70    31    70 1
   71    32    35 2
   72    33    35 2
@<TRIPOS>SUBSTRUCTURE
1   ****   1
@<TRIPOS>MOLECULE
1hri
42  43  1  0  0
SMALL
FORMAL_CHARGES
@<TRIPOS>ATOM
    1 C1         3.5450    -0.4787     0.0001 C.3        1 ****  0
    2 O1         2.4326    -1.3840    -0.0001 O.3        1 ****  0
    3 C2         1.2199    -0.6861    -0.0001 C.ar       1 ****  0
    4 C3         0.0165    -1.3815    -0.0002 C.ar       1 ****  0
    5 C4        -1.1866    -0.6856    -0.0002 C.ar       1 ****  0
    6 Cl1       -2.6751    -1.5414    -0.0004 Cl         1 ****  0
    7 C5        -1.1867     0.7039    -0.0001 C.ar       1 ****  0
    8 C6         0.0164     1.3992     0.0001 C.ar       1 ****  0
    9 C7         1.2195     0.7037     0.0001 C.ar       1 ****  0
   10 O2        -2.3973     1.4021    -0.0001 O.3        1 ****  0
   11 C8        -2.1748     2.8220     0.0001 C.3        1 ****  0
   12 C9        -3.5373     3.5498    -0.0000 C.3        1 ****  0
   13 C10       -3.3296     5.0813     0.0001 C.3        1 ****  0
   14 C11       -4.7077     5.7813     0.0000 C.3        1 ****  0
   15 C12       -4.5310     7.3159     0.0001 C.3        1 ****  0
   16 C13       -5.9242     7.9894    -0.0000 C.3        1 ****  0
   17 N1        -5.8033     9.4289     0.0000 N.ar       1 ****  0
   18 C14       -6.8318    10.2516     0.0000 C.ar       1 ****  0
   19 N2        -6.3437    11.4885     0.0000 N.ar       1 ****  0
   20 C15       -5.0157    11.4242     0.0000 C.ar       1 ****  0
   21 C16       -4.6621    10.0814     0.0000 C.ar       1 ****  0
   22 H1         3.4873     0.1563     0.8965 H          1 ****  0
   23 H2         3.4875     0.1565    -0.8961 H          1 ****  0
   24 H3         4.4907    -1.0405     0.0001 H          1 ****  0
   25 H4         0.0163    -2.4815    -0.0003 H          1 ****  0
   26 H5         0.0165     2.4992     0.0002 H          1 ****  0
   27 H6         2.1722     1.2536     0.0002 H          1 ****  0
   28 H7        -1.6079     3.1051     0.8992 H          1 ****  0
   29 H8        -1.6074     3.1063    -0.8985 H          1 ****  0
   30 H9        -4.1055     3.2597    -0.8962 H          1 ****  0
   31 H10       -4.1066     3.2599     0.8955 H          1 ****  0
   32 H11       -2.7686     5.3760     0.8993 H          1 ****  0
   33 H12       -2.7682     5.3771    -0.8984 H          1 ****  0
   34 H13       -5.2697     5.4797    -0.8962 H          1 ****  0
   35 H14       -5.2708     5.4800     0.8956 H          1 ****  0
   36 H15       -3.9759     7.6218     0.8992 H          1 ****  0
   37 H16       -3.9755     7.6228    -0.8984 H          1 ****  0
   38 H17       -6.4817     7.6735     0.8941 H          1 ****  0
   39 H18       -6.4806     7.6732    -0.8947 H          1 ****  0
   40 H19       -7.8948     9.9687     0.0000 H          1 ****  0
   41 H20       -4.3233    12.2789     0.0001 H          1 ****  0
   42 H21       -3.6477     9.6562     0.0000 H          1 ****  0
@<TRIPOS>BOND
    1     1     2 1
    2     1    22 1
    3     1    23 1
    4     1    24 1
    5     2     3 1
    6     3     4 ar
    7     3     9 ar
    8     4     5 ar
    9     4    25 1
   10     5     6 1
   11     5     7 ar
   12     7     8 ar
   13     7    10 1
   14     8     9 ar
   15     8    26 1
   16     9    27 1
   17    10    11 1
   18    11    12 1
   19    11    28 1
   20    11    29 1
   21    12    13 1
   22    12    30 1
   23    12    31 1
   24    13    14 1
   25    13    32 1
   26    13    33 1
   27    14    15 1
   28    14    34 1
   29    14    35 1
   30    15    16 1
   31    15    36 1
   32    15    37 1
   33    16    17 1
   34    16    38 1
   35    16    39 1
   36    17    18 ar
   37    17    21 ar
   38    18    19 ar
   39    18    40 1
   40    19    20 ar
   41    20    21 ar
   42    20    41 1
   43    21    42 1
@<TRIPOS>SUBSTRUCTURE
1   ****   1
@<TRIPOS>MOLECULE
1hsb
39  38  1  0  0
SMALL
FORMAL_CHARGES
@<TRIPOS>ATOM
    1 N1         0.3583    -0.0049    -0.2843 N.4        1 ****  1
    2 C1         1.6738     0.3485    -0.9896 C.3        1 ****  0
    3 C2         2.7693     0.0046     0.0407 C.2        1 ****  0
    4 O1         2.6732    -1.2201     0.1599 O.2        1 ****  0
    5 C3         1.6737     1.9328    -1.0952 C.3        1 ****  0
    6 N2         4.0321     0.6158    -0.0346 N.am       1 ****  0
    7 C4         5.1783     0.5838     0.8939 C.3        1 ****  0
    8 C5         6.4346     0.7398    -0.0219 C.2        1 ****  0
    9 O2         6.2641     1.9532    -0.1687 O.2        1 ****  0
   10 C6         5.2161    -0.9121     1.4656 C.3        1 ****  0
   11 C7         6.4137    -1.8700     1.6194 C.3        1 ****  0
   12 C8         5.2140     0.1164     2.6130 C.3        1 ****  0
   13 N3         7.7358     0.2126     0.0246 N.am       1 ****  0
   14 C9         9.0134     0.2482    -0.7676 C.3        1 ****  0
   15 C10       10.1174     0.2729     0.2896 C.2        1 ****  0
   16 O3        11.2095     0.5871    -0.1968 O.2        1 ****  0
   17 C11        9.0342     1.6796    -1.4525 C.3        1 ****  0
   18 H1         0.4704    -0.4468    -1.2079 H          1 ****  0
   19 H2        -0.4859     0.5852    -0.2934 H          1 ****  0
   20 H3         0.2717    -0.7294     0.4427 H          1 ****  0
   21 H4         1.8193    -0.1467    -1.9610 H          1 ****  0
   22 H5         0.7647     2.5522    -1.1002 H          1 ****  0
   23 H6         1.7862     1.4500    -2.0771 H          1 ****  0
   24 H7         2.5525     2.5596    -0.8834 H          1 ****  0
   25 H8         4.1013     1.6326    -0.1842 H          1 ****  0
   26 H9         5.1266     1.3398     1.6913 H          1 ****  0
   27 H10        4.3006    -1.5205     1.5069 H          1 ****  0
   28 H11        7.3398    -1.2838     1.5263 H          1 ****  0
   29 H12        6.3757    -2.6054     0.8023 H          1 ****  0
   30 H13        6.3811    -2.3800     2.5936 H          1 ****  0
   31 H14        4.3206     0.7530     2.5316 H          1 ****  0
   32 H15        6.1158     0.7426     2.5443 H          1 ****  0
   33 H16        5.2041    -0.4084     3.5797 H          1 ****  0
   34 H17        7.8662    -0.8055     0.1104 H          1 ****  0
   35 H18        9.1387    -0.5717    -1.4902 H          1 ****  0
   36 H19       10.0459    -0.5898     0.9682 H          1 ****  0
   37 H20        8.1303     2.2624    -1.6837 H          1 ****  0
   38 H21        9.1363     0.8663    -2.1860 H          1 ****  0
   39 H22        9.9194     2.3314    -1.4912 H          1 ****  0
@<TRIPOS>BOND
    1     1    18 1
    2     1    19 1
    3     1    20 1
    4     2     1 1
    5     2     3 1
    6     2     5 1
    7     2    21 1
    8     3     4 2
    9     3     6 am
   10     5    22 1
   11     5    23 1
   12     5    24 1
   13     6    25 1
   14     7     6 1
   15     7     8 1
   16     7    10 1
   17     7    26 1
   18     8     9 2
   19     8    13 am
   20    10    11 1
   21    10    12 1
   22    10    27 1
   23    11    28 1
   24    11    29 1
   25    11    30 1
   26    12    31 1
   27    12    32 1
   28    12    33 1
   29    13    14 1
   30    13    34 1
   31    14    15 1
   32    14    17 1
   33    14    35 1
   34    15    16 2
   35    15    36 1
   36    17    37 1
   37    17    38 1
   38    17    39 1
@<TRIPOS>SUBSTRUCTURE
1   ****   1
@<TRIPOS>MOLECULE
1hsl
20  20  1  0  0
SMALL
FORMAL_CHARGES
@<TRIPOS>ATOM
    1 N1         3.3335    -1.1352    -1.3604 N.4        1 ****  1
    2 C1         3.0279    -1.7941    -0.0785 C.3        1 ****  0
    3 C2         3.8465    -3.0475     0.0248 C.2        1 ****  0.0000
    4 O1         5.0788    -2.9884    -0.0508 O.co2      1 ****  -0.50
    5 C3         1.5257    -2.1601    -0.0022 C.3        1 ****  0
    6 C4         0.6492    -0.9339    -0.0001 C.ar       1 ****  0
    7 N2        -0.6733    -0.9397    -0.0004 N.ar       1 ****  0
    8 C5         1.1032     0.3733     0.0002 C.ar       1 ****  0
    9 C6        -1.0604     0.3328    -0.0003 C.ar       1 ****  0
   10 N3         0.0103     1.1266     0.0001 N.ar       1 ****  0
   11 O2         3.2325    -4.2481     0.1873 O.co2      1 ****  -0.50
   12 H1         3.0973    -1.7631    -2.1420 H          1 ****  0
   13 H2         4.3341    -0.8943    -1.4006 H          1 ****  0
   14 H3         2.7751    -0.2733    -1.4388 H          1 ****  0
   15 H4         3.2669    -1.1081     0.7476 H          1 ****  0
   16 H5         1.2630    -2.7886    -0.8659 H          1 ****  0
   17 H6         1.3398    -2.7365     0.9160 H          1 ****  0
   18 H7         2.1486     0.7157     0.0004 H          1 ****  0
   19 H8        -2.1050     0.6775    -0.0004 H          1 ****  0
   20 H9        -0.0075     2.1564     0.0002 H          1 ****  0
@<TRIPOS>BOND
    1     1    12 1
    2     1    13 1
    3     1    14 1
    4     2     1 1
    5     2     3 1
    6     2     5 1
    7     2    15 1
    8     3     4 ar
    9     3    11 ar
   10     5     6 1
   11     5    16 1
   12     5    17 1
   13     6     7 ar
   14     6     8 ar
   15     7     9 ar
   16     8    10 ar
   17     8    18 1
   18     9    10 ar
   19     9    19 1
   20    10    20 1
@<TRIPOS>SUBSTRUCTURE
1   ****   1
@<TRIPOS>MOLECULE
1htf
79  82  1  0  0
SMALL
FORMAL_CHARGES
@<TRIPOS>ATOM
    1 C1         0.8924    -1.1447     0.0027 C.3        1 ****  0
    2 C2         1.3355     0.2036    -0.7161 C.3        1 ****  0
    3 C3        -1.1891     0.5082     0.0692 C.3        1 ****  0
    4 C4        -2.3563     0.8543    -0.8920 C.3        1 ****  0
    5 C5        -2.0077     0.3724    -2.2831 C.2        1 ****  0
    6 C6         1.6675    -2.1150     0.9036 C.3        1 ****  0
    7 C7         1.1923    -1.4545    -1.4717 C.3        1 ****  0
    8 C8         2.5777     0.8058    -0.0202 C.2        1 ****  0
    9 C9         4.3453     1.2009    -1.7240 C.3        1 ****  0
   10 C10       -0.4216     0.3118    -4.1707 C.3        1 ****  0
   11 C11        5.2451     0.0549    -1.1838 C.3        1 ****  0
   12 C12       -4.2058     0.6476     0.7167 C.2        1 ****  0
   13 C13       -5.4917    -0.0545     1.1359 C.3        1 ****  0
   14 C14       -5.3431     1.1759     3.3600 C.ar       1 ****  0
   15 C15       -6.0364     0.3414     2.5023 C.ar       1 ****  0
   16 C16       -7.2806    -0.1626     2.8924 C.ar       1 ****  0
   17 C17       -7.8167     0.1765     4.1234 C.ar       1 ****  0
   18 C18       -7.1157     1.0209     4.9809 C.ar       1 ****  0
   19 C19       -5.8796     1.5186     4.6007 C.ar       1 ****  0
   20 C20        4.4337     1.2806    -3.2618 C.3        1 ****  0
   21 C21        8.1133     2.8328    -4.8425 C.ar       1 ****  0
   22 C22        7.8563     2.9297    -3.4816 C.ar       1 ****  0
   23 C23        6.6727     2.4180    -2.9567 C.ar       1 ****  0
   24 C24        5.7558     1.7925    -3.7887 C.ar       1 ****  0
   25 C25        6.0195     1.6917    -5.1534 C.ar       1 ****  0
   26 C26        7.1921     2.2130    -5.6801 C.ar       1 ****  0
   27 C27        2.5166     1.3450    -6.3393 C.ar       1 ****  0
   28 C28        2.8477     2.5851    -5.8004 C.ar       1 ****  0
   29 C29        2.1360     3.0821    -4.7187 C.ar       1 ****  0
   30 C30        1.0891     2.3394    -4.1817 C.ar       1 ****  0
   31 C31        0.7453     1.1102    -4.7235 C.ar       1 ****  0
   32 C32        1.4649     0.6122    -5.8087 C.ar       1 ****  0
   33 N1         0.1152     1.0701    -0.4018 N.3        1 ****  0
   34 N2         2.9722     0.9374    -1.3740 N.am       1 ****  0
   35 N3        -3.5656     0.2199    -0.4431 N.am       1 ****  0
   36 N4        -0.8578     0.8537    -2.9101 N.am       1 ****  0
   37 O1         3.3839     1.0710     0.8781 O.2        1 ****  0
   38 O2        -2.7338    -0.4412    -2.8643 O.2        1 ****  0
   39 O3        -3.7467     1.6072     1.3445 O.2        1 ****  0
   40 O4         4.8078    -1.2165    -1.7004 O.3        1 ****  0
   41 S1        -0.8745    -1.2502     0.1849 S.3        1 ****  0
   42 H1         1.5061     0.0425    -1.7893 H          1 ****  0
   43 H2        -1.3913     0.8797     1.0849 H          1 ****  0
   44 H3        -2.4778     1.9471    -0.9000 H          1 ****  0
   45 H4         1.3809    -1.9174     1.9229 H          1 ****  0
   46 H5         2.7166    -1.8945     0.7983 H          1 ****  0
   47 H6         1.4663    -3.1074     0.6445 H          1 ****  0
   48 H7         2.2231    -1.2138    -1.6615 H          1 ****  0
   49 H8         0.5746    -0.8180    -2.0800 H          1 ****  0
   50 H9         1.0031    -2.4664    -1.6838 H          1 ****  0
   51 H10        4.6507     2.1558    -1.2777 H          1 ****  0
   52 H11       -0.1215    -0.7106    -4.0326 H          1 ****  0
   53 H12       -1.2386     0.3406    -4.8723 H          1 ****  0
   54 H13        5.1968     0.0377    -0.1114 H          1 ****  0
   55 H14        6.2643     0.2293    -1.4831 H          1 ****  0
   56 H15       -6.2631     0.1373     0.3786 H          1 ****  0
   57 H16       -5.3248    -1.1367     1.1232 H          1 ****  0
   58 H17       -4.3881     1.5612     3.0695 H          1 ****  0
   59 H18       -7.8210    -0.8132     2.2370 H          1 ****  0
   60 H19       -8.7703    -0.2105     4.4160 H          1 ****  0
   61 H20       -7.5307     1.2848     5.9312 H          1 ****  0
   62 H21       -5.3372     2.1652     5.2585 H          1 ****  0
   63 H22        4.2467     0.2873    -3.6806 H          1 ****  0
   64 H23        3.6338     1.9243    -3.6311 H          1 ****  0
   65 H24        9.0190     3.2346    -5.2465 H          1 ****  0
   66 H25        8.5688     3.3983    -2.8354 H          1 ****  0
   67 H26        6.4700     2.5073    -1.9099 H          1 ****  0
   68 H27        5.3142     1.2098    -5.7979 H          1 ****  0
   69 H28        7.3876     2.1384    -6.7294 H          1 ****  0
   70 H29        3.0749     0.9559    -7.1650 H          1 ****  0
   71 H30        3.6505     3.1543    -6.2204 H          1 ****  0
   72 H31        2.3910     4.0327    -4.2989 H          1 ****  0
   73 H32        0.5445     2.7202    -3.3431 H          1 ****  0
   74 H33        1.2060    -0.3355    -6.2326 H          1 ****  0
   75 H34        0.1396     2.0921    -0.2730 H          1 ****  0
   76 H35        2.3001     0.8469    -2.0982 H          1 ****  0
   77 H36       -3.9511    -0.5323    -0.9647 H          1 ****  0
   78 H37       -0.3304     1.5452    -2.4683 H          1 ****  0
   79 H38        4.9113    -1.2452    -2.6836 H          1 ****  0
@<TRIPOS>BOND
    1     1     2 1
    2     1     6 1
    3     1     7 1
    4     1    41 1
    5     2     8 1
    6     2    33 1
    7     2    42 1
    8     3     4 1
    9     3    33 1
   10     3    41 1
   11     3    43 1
   12     4     5 1
   13     4    35 1
   14     4    44 1
   15     5    36 am
   16     5    38 2
   17     6    45 1
   18     6    46 1
   19     6    47 1
   20     7    48 1
   21     7    49 1
   22     7    50 1
   23     8    34 am
   24     8    37 2
   25     9    11 1
   26     9    20 1
   27     9    34 1
   28     9    51 1
   29    10    31 1
   30    10    36 1
   31    10    52 1
   32    10    53 1
   33    11    40 1
   34    11    54 1
   35    11    55 1
   36    12    13 1
   37    12    35 am
   38    12    39 2
   39    13    15 1
   40    13    56 1
   41    13    57 1
   42    14    15 ar
   43    14    19 ar
   44    14    58 1
   45    15    16 ar
   46    16    17 ar
   47    16    59 1
   48    17    18 ar
   49    17    60 1
   50    18    19 ar
   51    18    61 1
   52    19    62 1
   53    20    24 1
   54    20    63 1
   55    20    64 1
   56    21    22 ar
   57    21    26 ar
   58    21    65 1
   59    22    23 ar
   60    22    66 1
   61    23    24 ar
   62    23    67 1
   63    24    25 ar
   64    25    26 ar
   65    25    68 1
   66    26    69 1
   67    27    28 ar
   68    27    32 ar
   69    27    70 1
   70    28    29 ar
   71    28    71 1
   72    29    30 ar
   73    29    72 1
   74    30    31 ar
   75    30    73 1
   76    31    32 ar
   77    32    74 1
   78    33    75 1
   79    34    76 1
   80    35    77 1
   81    36    78 1
   82    40    79 1
@<TRIPOS>SUBSTRUCTURE
1   ****   1
@<TRIPOS>MOLECULE
1htf
79  82  1  0  0
SMALL
FORMAL_CHARGES
@<TRIPOS>ATOM
    1 C1         0.8924    -1.1447     0.0027 C.3        1 ****  0
    2 C2         1.3355     0.2036    -0.7161 C.3        1 ****  0
    3 C3        -1.1891     0.5082     0.0692 C.3        1 ****  0
    4 C4        -2.3563     0.8543    -0.8920 C.3        1 ****  0
    5 C5        -2.0077     0.3724    -2.2831 C.2        1 ****  0
    6 C6         1.6675    -2.1150     0.9036 C.3        1 ****  0
    7 C7         1.1923    -1.4545    -1.4717 C.3        1 ****  0
    8 C8         2.5777     0.8058    -0.0202 C.2        1 ****  0
    9 C9         4.3453     1.2009    -1.7240 C.3        1 ****  0
   10 C10       -0.4216     0.3118    -4.1707 C.3        1 ****  0
   11 C11        5.2451     0.0549    -1.1838 C.3        1 ****  0
   12 C12       -4.2058     0.6476     0.7167 C.2        1 ****  0
   13 C13       -5.4917    -0.0545     1.1359 C.3        1 ****  0
   14 C14       -5.3431     1.1759     3.3600 C.ar       1 ****  0
   15 C15       -6.0364     0.3414     2.5023 C.ar       1 ****  0
   16 C16       -7.2806    -0.1626     2.8924 C.ar       1 ****  0
   17 C17       -7.8167     0.1765     4.1234 C.ar       1 ****  0
   18 C18       -7.1157     1.0209     4.9809 C.ar       1 ****  0
   19 C19       -5.8796     1.5186     4.6007 C.ar       1 ****  0
   20 C20        4.4337     1.2806    -3.2618 C.3        1 ****  0
   21 C21        8.1133     2.8328    -4.8425 C.ar       1 ****  0
   22 C22        7.8563     2.9297    -3.4816 C.ar       1 ****  0
   23 C23        6.6727     2.4180    -2.9567 C.ar       1 ****  0
   24 C24        5.7558     1.7925    -3.7887 C.ar       1 ****  0
   25 C25        6.0195     1.6917    -5.1534 C.ar       1 ****  0
   26 C26        7.1921     2.2130    -5.6801 C.ar       1 ****  0
   27 C27        2.5166     1.3450    -6.3393 C.ar       1 ****  0
   28 C28        2.8477     2.5851    -5.8004 C.ar       1 ****  0
   29 C29        2.1360     3.0821    -4.7187 C.ar       1 ****  0
   30 C30        1.0891     2.3394    -4.1817 C.ar       1 ****  0
   31 C31        0.7453     1.1102    -4.7235 C.ar       1 ****  0
   32 C32        1.4649     0.6122    -5.8087 C.ar       1 ****  0
   33 N1         0.1152     1.0701    -0.4018 N.3        1 ****  0
   34 N2         2.9722     0.9374    -1.3740 N.am       1 ****  0
   35 N3        -3.5656     0.2199    -0.4431 N.am       1 ****  0
   36 N4        -0.8578     0.8537    -2.9101 N.am       1 ****  0
   37 O1         3.3839     1.0710     0.8781 O.2        1 ****  0
   38 O2        -2.7338    -0.4412    -2.8643 O.2        1 ****  0
   39 O3        -3.7467     1.6072     1.3445 O.2        1 ****  0
   40 O4         4.8078    -1.2165    -1.7004 O.3        1 ****  0
   41 S1        -0.8745    -1.2502     0.1849 S.3        1 ****  0
   42 H1         1.5061     0.0425    -1.7893 H          1 ****  0
   43 H2        -1.3913     0.8797     1.0849 H          1 ****  0
   44 H3        -2.4778     1.9471    -0.9000 H          1 ****  0
   45 H4         1.3809    -1.9174     1.9229 H          1 ****  0
   46 H5         2.7166    -1.8945     0.7983 H          1 ****  0
   47 H6         1.4663    -3.1074     0.6445 H          1 ****  0
   48 H7         2.2231    -1.2138    -1.6615 H          1 ****  0
   49 H8         0.5746    -0.8180    -2.0800 H          1 ****  0
   50 H9         1.0031    -2.4664    -1.6838 H          1 ****  0
   51 H10        4.6507     2.1558    -1.2777 H          1 ****  0
   52 H11       -0.1215    -0.7106    -4.0326 H          1 ****  0
   53 H12       -1.2386     0.3406    -4.8723 H          1 ****  0
   54 H13        5.1968     0.0377    -0.1114 H          1 ****  0
   55 H14        6.2643     0.2293    -1.4831 H          1 ****  0
   56 H15       -6.2631     0.1373     0.3786 H          1 ****  0
   57 H16       -5.3248    -1.1367     1.1232 H          1 ****  0
   58 H17       -4.3881     1.5612     3.0695 H          1 ****  0
   59 H18       -7.8210    -0.8132     2.2370 H          1 ****  0
   60 H19       -8.7703    -0.2105     4.4160 H          1 ****  0
   61 H20       -7.5307     1.2848     5.9312 H          1 ****  0
   62 H21       -5.3372     2.1652     5.2585 H          1 ****  0
   63 H22        4.2467     0.2873    -3.6806 H          1 ****  0
   64 H23        3.6338     1.9243    -3.6311 H          1 ****  0
   65 H24        9.0190     3.2346    -5.2465 H          1 ****  0
   66 H25        8.5688     3.3983    -2.8354 H          1 ****  0
   67 H26        6.4700     2.5073    -1.9099 H          1 ****  0
   68 H27        5.3142     1.2098    -5.7979 H          1 ****  0
   69 H28        7.3876     2.1384    -6.7294 H          1 ****  0
   70 H29        3.0749     0.9559    -7.1650 H          1 ****  0
   71 H30        3.6505     3.1543    -6.2204 H          1 ****  0
   72 H31        2.3910     4.0327    -4.2989 H          1 ****  0
   73 H32        0.5445     2.7202    -3.3431 H          1 ****  0
   74 H33        1.2060    -0.3355    -6.2326 H          1 ****  0
   75 H34        0.1396     2.0921    -0.2730 H          1 ****  0
   76 H35        2.3001     0.8469    -2.0982 H          1 ****  0
   77 H36       -3.9511    -0.5323    -0.9647 H          1 ****  0
   78 H37       -0.3304     1.5452    -2.4683 H          1 ****  0
   79 H38        4.9113    -1.2452    -2.6836 H          1 ****  0
@<TRIPOS>BOND
    1     1     2 1
    2     1     6 1
    3     1     7 1
    4     1    41 1
    5     2     8 1
    6     2    33 1
    7     2    42 1
    8     3     4 1
    9     3    33 1
   10     3    41 1
   11     3    43 1
   12     4     5 1
   13     4    35 1
   14     4    44 1
   15     5    36 am
   16     5    38 2
   17     6    45 1
   18     6    46 1
   19     6    47 1
   20     7    48 1
   21     7    49 1
   22     7    50 1
   23     8    34 am
   24     8    37 2
   25     9    11 1
   26     9    20 1
   27     9    34 1
   28     9    51 1
   29    10    31 1
   30    10    36 1
   31    10    52 1
   32    10    53 1
   33    11    40 1
   34    11    54 1
   35    11    55 1
   36    12    13 1
   37    12    35 am
   38    12    39 2
   39    13    15 1
   40    13    56 1
   41    13    57 1
   42    14    15 ar
   43    14    19 ar
   44    14    58 1
   45    15    16 ar
   46    16    17 ar
   47    16    59 1
   48    17    18 ar
   49    17    60 1
   50    18    19 ar
   51    18    61 1
   52    19    62 1
   53    20    24 1
   54    20    63 1
   55    20    64 1
   56    21    22 ar
   57    21    26 ar
   58    21    65 1
   59    22    23 ar
   60    22    66 1
   61    23    24 ar
   62    23    67 1
   63    24    25 ar
   64    25    26 ar
   65    25    68 1
   66    26    69 1
   67    27    28 ar
   68    27    32 ar
   69    27    70 1
   70    28    29 ar
   71    28    71 1
   72    29    30 ar
   73    29    72 1
   74    30    31 ar
   75    30    73 1
   76    31    32 ar
   77    32    74 1
   78    33    75 1
   79    34    76 1
   80    35    77 1
   81    36    78 1
   82    40    79 1
@<TRIPOS>SUBSTRUCTURE
1   ****   1
@<TRIPOS>MOLECULE
1hvr
84  90  1  0  0
SMALL
FORMAL_CHARGES
@<TRIPOS>ATOM
    1 C1         1.5665    -0.4237     0.0368 C.2        1 ****  0
    2 O1         2.7085    -0.7645     0.1335 O.2        1 ****  0
    3 N1         1.2645     0.8914     0.3886 N.am       1 ****  0
    4 C2         2.3885     1.7691     0.9547 C.3        1 ****  0
    5 C3         0.0666     1.5798    -0.1884 C.3        1 ****  0
    6 C4        -1.2443     1.0200    -0.8343 C.3        1 ****  0
    7 O2        -2.3129     1.8913    -0.2760 O.3        1 ****  0
    8 C5        -1.5790    -0.3987     0.8118 C.3        1 ****  0
    9 O3        -2.9262    -0.7097     0.2580 O.3        1 ****  0
   10 C6        -0.6628    -1.4779     0.1623 C.3        1 ****  0
   11 N2         0.7089    -1.3918    -0.4196 N.am       1 ****  0
   12 C7         1.3103    -2.6454    -1.0564 C.3        1 ****  0
   13 C8         3.6196     1.2255     1.8118 C.ar       1 ****  0
   14 C9         3.8808    -0.1186     2.0629 C.ar       1 ****  0
   15 C10        5.0311    -0.5476     2.7023 C.ar       1 ****  0
   16 C11        5.9436     0.3913     3.1517 C.ar       1 ****  0
   17 C12        7.1189    -0.0259     3.7585 C.ar       1 ****  0
   18 C13        8.0035     0.9176     4.2647 C.ar       1 ****  0
   19 C14        7.7013     2.2706     4.1648 C.ar       1 ****  0
   20 C15        6.5396     2.6845     3.5245 C.ar       1 ****  0
   21 C16        5.6665     1.7428     2.9918 C.ar       1 ****  0
   22 C17        4.5208     2.1565     2.3203 C.ar       1 ****  0
   23 C18        0.1148     3.1220     0.1471 C.3        1 ****  0
   24 C19        0.0690     3.5464     1.6226 C.ar       1 ****  0
   25 C20       -0.0476     2.6271     2.6608 C.ar       1 ****  0
   26 C21       -0.0165     3.0502     3.9828 C.ar       1 ****  0
   27 C22        0.1482     4.3980     4.2746 C.ar       1 ****  0
   28 C23        0.2649     5.3208     3.2429 C.ar       1 ****  0
   29 C24        0.2202     4.8951     1.9214 C.ar       1 ****  0
   30 C25       -1.3056    -2.8808    -0.1553 C.3        1 ****  0
   31 C26       -1.5289    -3.2582    -1.6241 C.ar       1 ****  0
   32 C27       -1.2660    -2.3776    -2.6694 C.ar       1 ****  0
   33 C28       -1.4023    -2.7890    -3.9878 C.ar       1 ****  0
   34 C29       -1.7872    -4.0936    -4.2678 C.ar       1 ****  0
   35 C30       -2.0536    -4.9765    -3.2289 C.ar       1 ****  0
   36 C31       -1.9297    -4.5568    -1.9108 C.ar       1 ****  0
   37 C32        2.6928    -2.6671    -1.8426 C.ar       1 ****  0
   38 C33        3.5732    -1.5887    -1.9067 C.ar       1 ****  0
   39 C34        4.8322    -1.7022    -2.4587 C.ar       1 ****  0
   40 C35        5.7288    -0.6405    -2.3551 C.ar       1 ****  0
   41 C36        7.0182    -0.7755    -2.8476 C.ar       1 ****  0
   42 C37        7.4156    -1.9743    -3.4286 C.ar       1 ****  0
   43 C38        6.5242    -3.0419    -3.5083 C.ar       1 ****  0
   44 C39        5.2342    -2.9016    -3.0224 C.ar       1 ****  0
   45 C40        4.3382    -3.9696    -3.0500 C.ar       1 ****  0
   46 C41        3.0881    -3.8546    -2.4509 C.ar       1 ****  0
   47 H1         1.8960     2.6068     1.5534 H          1 ****  0
   48 H2         2.8158     2.3762     0.0841 H          1 ****  0
   49 H3         0.1084     1.4937    -1.2843 H          1 ****  0
   50 H4        -1.1849     1.0125    -1.9217 H          1 ****  0
   51 H5        -2.2768     1.8704    -1.2660 H          1 ****  0
   52 H6        -1.5195    -0.4199     1.8982 H          1 ****  0
   53 H7        -3.5922    -0.0390    -0.0303 H          1 ****  0
   54 H8        -0.5801    -1.4063     1.2578 H          1 ****  0
   55 H9         0.5184    -3.0940    -1.7390 H          1 ****  0
   56 H10        1.3599    -3.4477    -0.2475 H          1 ****  0
   57 H11        3.1643    -0.8488     1.7493 H          1 ****  0
   58 H12        5.2128    -1.5920     2.8474 H          1 ****  0
   59 H13        7.3431    -1.0692     3.8362 H          1 ****  0
   60 H14        8.9146     0.6040     4.7301 H          1 ****  0
   61 H15        8.3665     2.9970     4.5829 H          1 ****  0
   62 H16        6.3170     3.7278     3.4415 H          1 ****  0
   63 H17        4.3301     3.2016     2.1931 H          1 ****  0
   64 H18        1.0293     3.5554    -0.3135 H          1 ****  0
   65 H19       -0.7164     3.6260    -0.3868 H          1 ****  0
   66 H20       -0.1620     1.5867     2.4387 H          1 ****  0
   67 H21       -0.1194     2.3390     4.7756 H          1 ****  0
   68 H22        0.1852     4.7251     5.2927 H          1 ****  0
   69 H23        0.3892     6.3599     3.4662 H          1 ****  0
   70 H24        0.3026     5.6095     1.1291 H          1 ****  0
   71 H25       -0.6826    -3.6702     0.3180 H          1 ****  0
   72 H26       -2.2764    -2.9530     0.3749 H          1 ****  0
   73 H27       -0.9566    -1.3760    -2.4549 H          1 ****  0
   74 H28       -1.2112    -2.1030    -4.7863 H          1 ****  0
   75 H29       -1.8787    -4.4185    -5.2831 H          1 ****  0
   76 H30       -2.3543    -5.9805    -3.4443 H          1 ****  0
   77 H31       -2.1438    -5.2367    -1.1129 H          1 ****  0
   78 H32        3.2626    -0.6426    -1.5153 H          1 ****  0
   79 H33        5.4232     0.2767    -1.8967 H          1 ****  0
   80 H34        7.7058     0.0415    -2.7805 H          1 ****  0
   81 H35        8.4080    -2.0772    -3.8152 H          1 ****  0
   82 H36        6.8351    -3.9684    -3.9440 H          1 ****  0
   83 H37        4.6138    -4.8828    -3.5347 H          1 ****  0
   84 H38        2.4210    -4.6912    -2.4578 H          1 ****  0
@<TRIPOS>BOND
    1     1     2 2
    2     1     3 am
    3     1    11 am
    4     3     4 1
    5     3     5 1
    6     4    13 1
    7     4    47 1
    8     4    48 1
    9     5     6 1
   10     5    23 1
   11     5    49 1
   12     6     7 1
   13     6     8 1
   14     6    50 1
   15     7    51 1
   16     8     9 1
   17     8    10 1
   18     8    52 1
   19     9    53 1
   20    10    11 1
   21    10    30 1
   22    10    54 1
   23    11    12 1
   24    12    37 1
   25    12    55 1
   26    12    56 1
   27    13    14 ar
   28    13    22 ar
   29    14    15 ar
   30    14    57 1
   31    15    16 ar
   32    15    58 1
   33    16    17 ar
   34    16    21 ar
   35    17    18 ar
   36    17    59 1
   37    18    19 ar
   38    18    60 1
   39    19    20 ar
   40    19    61 1
   41    20    21 ar
   42    20    62 1
   43    21    22 ar
   44    22    63 1
   45    23    24 1
   46    23    64 1
   47    23    65 1
   48    24    25 ar
   49    24    29 ar
   50    25    26 ar
   51    25    66 1
   52    26    27 ar
   53    26    67 1
   54    27    28 ar
   55    27    68 1
   56    28    29 ar
   57    28    69 1
   58    29    70 1
   59    30    31 1
   60    30    71 1
   61    30    72 1
   62    31    32 ar
   63    31    36 ar
   64    32    33 ar
   65    32    73 1
   66    33    34 ar
   67    33    74 1
   68    34    35 ar
   69    34    75 1
   70    35    36 ar
   71    35    76 1
   72    36    77 1
   73    37    38 ar
   74    37    46 ar
   75    38    39 ar
   76    38    78 1
   77    39    40 ar
   78    39    44 ar
   79    40    41 ar
   80    40    79 1
   81    41    42 ar
   82    41    80 1
   83    42    43 ar
   84    42    81 1
   85    43    44 ar
   86    43    82 1
   87    44    45 ar
   88    45    46 ar
   89    45    83 1
   90    46    84 1
@<TRIPOS>SUBSTRUCTURE
1   ****   1
@<TRIPOS>MOLECULE
1hyt
25  25  1  0  0
SMALL
FORMAL_CHARGES
@<TRIPOS>ATOM
    1 C1         6.1441    -0.5925    -0.8671 C.2        1 ****  0.0000
    2 C2         4.9609    -1.4089    -0.4293 C.3        1 ****  0
    3 C3         3.6749    -0.5653    -0.5062 C.3        1 ****  0
    4 C4         3.4361    -0.1907    -1.9450 C.2        1 ****  0.0000
    5 C5         2.5121    -1.4504    -0.0038 C.3        1 ****  0
    6 C6         1.2084    -0.6974    -0.0001 C.ar       1 ****  0
    7 C7         0.0043    -1.3930    -0.0003 C.ar       1 ****  0
    8 C8         1.2089     0.6915     0.0001 C.ar       1 ****  0
    9 C9        -1.1987    -0.6980    -0.0003 C.ar       1 ****  0
   10 C10        0.0048     1.3871     0.0001 C.ar       1 ****  0
   11 C11       -1.1983     0.6923    -0.0001 C.ar       1 ****  0
   12 O1         7.2586    -1.1207    -0.9494 O.co2      1 ****  -0.50
   13 O2         5.9989     0.7289    -1.1477 O.co2      1 ****  -0.50
   14 O3         3.2714    -1.0733    -2.7939 O.co2      1 ****  -0.50
   15 O4         3.4134     1.1172    -2.3108 O.co2      1 ****  -0.50
   16 H1         4.8607    -2.2866    -1.0847 H          1 ****  0
   17 H2         5.1130    -1.7474     0.6062 H          1 ****  0
   18 H3         3.7545     0.3480     0.1017 H          1 ****  0
   19 H4         2.4186    -2.3303    -0.6571 H          1 ****  0
   20 H5         2.7327    -1.7941     1.0176 H          1 ****  0
   21 H6         0.0042    -2.4930    -0.0005 H          1 ****  0
   22 H7         2.1617     1.2413     0.0003 H          1 ****  0
   23 H8        -2.1515    -1.2478    -0.0004 H          1 ****  0
   24 H9         0.0048     2.4871     0.0003 H          1 ****  0
   25 H10       -2.1508     1.2424    -0.0001 H          1 ****  0
@<TRIPOS>BOND
    1     1     2 1
    2     1    12 ar
    3     1    13 ar
    4     2     3 1
    5     2    16 1
    6     2    17 1
    7     3     4 1
    8     3     5 1
    9     3    18 1
   10     4    14 ar
   11     4    15 ar
   12     5     6 1
   13     5    19 1
   14     5    20 1
   15     6     7 ar
   16     6     8 ar
   17     7     9 ar
   18     7    21 1
   19     8    10 ar
   20     8    22 1
   21     9    11 ar
   22     9    23 1
   23    10    11 ar
   24    10    24 1
   25    11    25 1
@<TRIPOS>SUBSTRUCTURE
1   ****   1
@<TRIPOS>MOLECULE
1ibg
85  90  1  0  0
SMALL
FORMAL_CHARGES
@<TRIPOS>ATOM
    1 C1         0.7573    -0.0169    -0.4442 C.3        1 ****  0
    2 C2         0.6252     1.4282    -0.3624 C.3        1 ****  0
    3 C3        -0.4192     1.6499     0.7676 C.3        1 ****  0
    4 C4        -1.8254     1.1713     0.0967 C.3        1 ****  0
    5 C5        -1.8582    -0.3174    -0.1156 C.3        1 ****  0
    6 C6        -3.1365    -0.9350    -0.7518 C.3        1 ****  0
    7 C7        -3.1194    -1.0103    -2.2871 C.3        1 ****  0
    8 C8        -1.8499    -1.7714    -2.7813 C.3        1 ****  0
    9 C9        -1.4574    -0.3554    -2.1157 C.3        1 ****  0
   10 C10       -0.5135    -0.8556    -0.8798 C.3        1 ****  0
   11 C11       -0.4656     0.4179    -3.2607 C.3        1 ****  0
   12 C12       -4.1999    -2.3965    -5.9061 C.3        1 ****  0
   13 C13       -2.9369    -1.5978    -5.5199 C.3        1 ****  0
   14 C14       -1.7373    -2.0408    -4.2772 C.3        1 ****  0
   15 C15       -2.8591    -2.8856    -4.8972 C.3        1 ****  0
   16 C16       -2.8724    -2.3769    -6.3854 C.3        1 ****  0
   17 C17       -2.5325    -0.8626    -6.4007 C.3        1 ****  0
   18 C18       -2.9676     0.0727    -5.1190 C.3        1 ****  0
   19 C19       -0.3110    -2.3866    -0.5699 C.3        1 ****  0
   20 C20       -1.7865    -0.4192    -7.5738 C.2        1 ****  0
   21 C21       -0.7287     0.6431    -7.8877 C.3        1 ****  0
   22 C22       -2.8543    -0.2623    -8.2436 C.2        1 ****  0
   23 C23       -2.7008     0.9025    -9.0499 C.2        1 ****  0
   24 C24        0.5527    -0.5553     2.5170 C.3        1 ****  0
   25 C25        1.9587    -0.7536     3.6839 C.3        1 ****  0
   26 C26        2.3670    -1.8415     2.6765 C.3        1 ****  0
   27 C27        1.1147    -2.8496     2.5877 C.3        1 ****  0
   28 C28       -0.2064    -2.6115     3.4251 C.3        1 ****  0
   29 C29       -1.4181    -3.1381     2.6372 C.3        1 ****  0
   30 O1         0.9401    -0.2077     0.7475 O.3        1 ****  0
   31 O2         0.0301     1.2668     2.3787 O.3        1 ****  0
   32 O3        -1.9946    -0.6515     1.1914 O.3        1 ****  0
   33 O4        -1.5065     1.3571    -3.0779 O.3        1 ****  0
   34 O5        -0.5082    -2.7633    -4.4621 O.3        1 ****  0
   35 O6         1.0240    -2.7778    -0.9060 O.3        1 ****  0
   36 O7        -1.4351     1.5151    -8.8412 O.3        1 ****  0
   37 O8        -3.5603     1.3591    -9.7632 O.2        1 ****  0
   38 O9         3.0298     0.1785     3.8160 O.3        1 ****  0
   39 O10        2.8034    -1.2205     1.4803 O.3        1 ****  0
   40 O11        1.0721    -3.7074     3.7129 O.3        1 ****  0
   41 O12       -0.4761    -1.1093     3.5904 O.3        1 ****  0
   42 H1         1.6403    -0.3221    -1.0188 H          1 ****  0
   43 H2         1.5436     1.8581    -0.0864 H          1 ****  0
   44 H3         0.2542     1.8070    -1.2665 H          1 ****  0
   45 H4        -0.5315     2.7447     0.8134 H          1 ****  0
   46 H5        -2.6450     1.4564     0.7417 H          1 ****  0
   47 H6        -1.9566     1.6674    -0.8519 H          1 ****  0
   48 H7        -4.0066    -0.3542    -0.4367 H          1 ****  0
   49 H8        -3.2821    -1.9433    -0.3495 H          1 ****  0
   50 H9        -4.0001    -1.5258    -2.6293 H          1 ****  0
   51 H10       -3.1188    -0.0167    -2.6936 H          1 ****  0
   52 H11       -1.8606    -2.7579    -2.3119 H          1 ****  0
   53 H12       -2.3477     0.2146    -1.8173 H          1 ****  0
   54 H13        0.4839     0.9140    -3.0248 H          1 ****  0
   55 H14       -0.3435     0.8800    -5.3641 H          1 ****  0
   56 H15        0.4589    -0.6077    -4.9161 H          1 ****  0
   57 H16       -3.7664    -2.6642    -4.4403 H          1 ****  0
   58 H17       -2.6016    -3.8955    -4.8703 H          1 ****  0
   59 H18       -2.7651    -3.1898    -7.0409 H          1 ****  0
   60 H19       -3.7400    -1.8188    -6.5636 H          1 ****  0
   61 H20       -3.4531    -0.2794    -6.3200 H          1 ****  0
   62 H21       -2.8225     0.8882    -5.8072 H          1 ****  0
   63 H22       -3.0781     0.4807    -4.1285 H          1 ****  0
   64 H23       -3.8037    -0.4961    -5.3844 H          1 ****  0
   65 H24       -1.0058    -2.9630    -1.1458 H          1 ****  0
   66 H25       -0.4826    -2.5657     0.4748 H          1 ****  0
   67 H26       -0.4928     1.1766    -7.0220 H          1 ****  0
   68 H27        0.0928     0.2010    -8.3498 H          1 ****  0
   69 H28       -3.7173    -0.8939    -8.2086 H          1 ****  0
   70 H29        0.6368    -1.1099     1.5704 H          1 ****  0
   71 H30        1.8517    -1.2973     4.6315 H          1 ****  0
   72 H31        3.2467    -2.3998     3.0066 H          1 ****  0
   73 H32        1.2203    -3.4954     1.6933 H          1 ****  0
   74 H33       -0.1394    -3.1244     4.2752 H          1 ****  0
   75 H34       -1.3334    -3.7123     3.5351 H          1 ****  0
   76 H35       -1.3588    -3.7886     1.7907 H          1 ****  0
   77 H36       -2.3644    -2.6291     2.6286 H          1 ****  0
   78 H37        1.0308    -1.0617     0.8059 H          1 ****  0
   79 H38       -2.8445    -0.2603     1.5319 H          1 ****  0
   80 H39       -1.4405     1.7510    -2.2186 H          1 ****  0
   81 H40       -0.5282    -3.6014    -3.9278 H          1 ****  0
   82 H41        1.1985    -3.6890    -0.5567 H          1 ****  0
   83 H42        2.8508     0.7839     4.5659 H          1 ****  0
   84 H43        3.5177    -0.5707     1.6749 H          1 ****  0
   85 H44        0.9046    -3.2073     4.5144 H          1 ****  0
@<TRIPOS>BOND
    1     1     2 1
    2     1    30 1
    3     1    42 1
    4     2     3 1
    5     2    43 1
    6     2    44 1
    7     3     4 1
    8     3    31 1
    9     3    45 1
   10     4    46 1
   11     4    47 1
   12     5     4 1
   13     5     6 1
   14     5    32 1
   15     6     7 1
   16     6    48 1
   17     6    49 1
   18     7    50 1
   19     7    51 1
   20     8     7 1
   21     8    14 1
   22     8    52 1
   23     9     8 1
   24     9    10 1
   25     9    11 1
   26     9    53 1
   27    10     1 1
   28    10     5 1
   29    10    19 1
   30    11    12 1
   31    11    33 1
   32    11    54 1
   33    12    55 1
   34    12    56 1
   35    13    12 1
   36    13    17 1
   37    13    18 1
   38    14    13 1
   39    14    15 1
   40    14    34 1
   41    15    16 1
   42    15    57 1
   43    15    58 1
   44    16    59 1
   45    16    60 1
   46    17    16 1
   47    17    20 1
   48    17    61 1
   49    18    62 1
   50    18    63 1
   51    18    64 1
   52    19    35 1
   53    19    65 1
   54    19    66 1
   55    20    21 1
   56    20    22 2
   57    21    36 1
   58    21    67 1
   59    21    68 1
   60    22    23 1
   61    22    69 1
   62    23    36 1
   63    23    37 2
   64    24    31 1
   65    24    41 1
   66    24    70 1
   67    25    24 1
   68    25    26 1
   69    25    38 1
   70    25    71 1
   71    26    27 1
   72    26    39 1
   73    26    72 1
   74    27    28 1
   75    27    40 1
   76    27    73 1
   77    28    29 1
   78    28    41 1
   79    28    74 1
   80    29    75 1
   81    29    76 1
   82    29    77 1
   83    30    78 1
   84    32    79 1
   85    33    80 1
   86    34    81 1
   87    35    82 1
   88    38    83 1
   89    39    84 1
   90    40    85 1
@<TRIPOS>SUBSTRUCTURE
1   ****   1
@<TRIPOS>MOLECULE
1ida
104  108  1  0  0
SMALL
FORMAL_CHARGES
@<TRIPOS>ATOM
    1 N1         1.1414    -0.6692    -0.0189 N.ar       1 ****  0
    2 C1        -0.0103    -1.3313    -0.0019 C.ar       1 ****  0
    3 C2        -1.2223    -0.6552     0.0292 C.ar       1 ****  0
    4 C3        -1.2206     0.7311     0.0373 C.ar       1 ****  0
    5 C4         0.0416     2.7799     0.0199 C.ar       1 ****  0
    6 C5         1.2671     3.4348     0.0038 C.ar       1 ****  0
    7 C6         2.4474     2.7011    -0.0147 C.ar       1 ****  0
    8 C7         2.4032     1.3124    -0.0215 C.ar       1 ****  0
    9 C8        -0.0007     1.3921     0.0165 C.ar       1 ****  0
   10 C9         1.1778     0.6567    -0.0085 C.ar       1 ****  0
   11 C10        0.0070    -2.7725    -0.0252 C.2        1 ****  0
   12 O1        -1.0472    -3.4144     0.0379 O.2        1 ****  0
   13 N2         1.2175    -3.4197    -0.1492 N.am       1 ****  0
   14 C11        1.2803    -4.8303    -0.1702 C.3        1 ****  0
   15 C12        2.4691    -5.2283     0.5885 C.2        1 ****  0
   16 O2         3.1294    -4.3840     1.2033 O.2        1 ****  0
   17 C13        1.4317    -5.3731    -1.6159 C.3        1 ****  0
   18 C14        2.7160    -4.8150    -2.2576 C.3        1 ****  0
   19 C15        0.2148    -4.9974    -2.4774 C.3        1 ****  0
   20 C16        5.4161    -9.0952     1.3729 C.3        1 ****  0
   21 C17        5.0525    -7.8687     0.4449 C.3        1 ****  0
   22 C18        4.0189    -6.9450     1.1900 C.3        1 ****  0
   23 C19        3.8565    -6.6963     2.7231 C.3        1 ****  0
   24 C20        2.5980    -7.2790     3.3918 C.ar       1 ****  0
   25 C21        2.2492    -6.8186     4.6562 C.ar       1 ****  0
   26 C22        1.1463    -7.3409     5.3209 C.ar       1 ****  0
   27 C23        0.3767    -8.3287     4.7205 C.ar       1 ****  0
   28 C24        0.7078    -8.7823     3.4505 C.ar       1 ****  0
   29 C25        1.8128    -8.2574     2.7926 C.ar       1 ****  0
   30 O3         4.2114    -8.2158    -0.7021 O.3        1 ****  0
   31 N3         2.8566    -6.5224     0.5484 N.am       1 ****  0
   32 N4         5.5116   -10.6413     1.3533 N.3        1 ****  0
   33 C26        4.1690   -10.3854     2.1525 C.3        1 ****  0
   34 C27        3.0890   -11.3326     1.4307 C.3        1 ****  0
   35 C28        3.1703   -11.9275    -0.0210 C.3        1 ****  0
   36 C29        4.3524   -11.3098    -0.7942 C.3        1 ****  0
   37 C30        5.6805   -11.2683     0.0084 C.3        1 ****  0
   38 C31        4.3430   -11.0612     3.6472 C.2        1 ****  0
   39 O4         4.1897   -12.0004     4.4365 O.2        1 ****  0
   40 N5         4.4744    -9.7448     4.1589 N.am       1 ****  0
   41 C32        4.7443    -9.4897     5.5621 C.3        1 ****  0
   42 C33        5.9218   -10.3541     6.0460 C.3        1 ****  0
   43 C34        3.4955    -9.7967     6.4089 C.3        1 ****  0
   44 C35        5.1394    -8.0134     5.7522 C.3        1 ****  0
   45 N6         3.7876   -17.7928     0.1659 N.ar       1 ****  0
   46 C36        3.8157   -16.4711     0.0565 C.ar       1 ****  0
   47 C37        4.8493   -15.7488     0.6358 C.ar       1 ****  0
   48 C38        5.8527   -16.3967     1.3348 C.ar       1 ****  0
   49 C39        5.7916   -17.7766     1.4299 C.ar       1 ****  0
   50 C40        4.7357   -18.4499     0.8264 C.ar       1 ****  0
   51 C41        4.8830   -14.3093     0.5187 C.3        1 ****  0
   52 S1         3.2875   -13.7319    -0.0348 S.3        1 ****  0
   53 H1        -2.1451    -1.1966     0.0467 H          1 ****  0
   54 H2        -2.1393     1.2792     0.0590 H          1 ****  0
   55 H3        -0.8676     3.3440     0.0348 H          1 ****  0
   56 H4         1.3022     4.5043     0.0057 H          1 ****  0
   57 H5         3.3907     3.2060    -0.0237 H          1 ****  0
   58 H6         3.3121     0.7480    -0.0368 H          1 ****  0
   59 H7         2.0574    -2.8907    -0.1864 H          1 ****  0
   60 H8         0.3773    -5.2681     0.2816 H          1 ****  0
   61 H9         1.4933    -6.4401    -1.5654 H          1 ****  0
   62 H10        3.5614    -5.1142    -1.6725 H          1 ****  0
   63 H11        2.6630    -3.7458    -2.2805 H          1 ****  0
   64 H12        2.8157    -5.1915    -3.2524 H          1 ****  0
   65 H13        0.1260    -3.9283    -2.4995 H          1 ****  0
   66 H14       -0.6668    -5.4104    -2.0260 H          1 ****  0
   67 H15        0.3323    -5.3745    -3.4607 H          1 ****  0
   68 H16        5.5120    -8.7548     2.4324 H          1 ****  0
   69 H17        6.3407    -8.6831     0.8942 H          1 ****  0
   70 H18        5.9445    -7.3614     0.1598 H          1 ****  0
   71 H19        4.8853    -6.3697     0.8366 H          1 ****  0
   72 H20        3.8826    -5.6105     2.9103 H          1 ****  0
   73 H21        4.7472    -7.0937     3.2424 H          1 ****  0
   74 H22        2.8356    -6.0545     5.1221 H          1 ****  0
   75 H23        0.8900    -6.9818     6.2957 H          1 ****  0
   76 H24       -0.4677    -8.7386     5.2343 H          1 ****  0
   77 H25        0.1120    -9.5357     2.9789 H          1 ****  0
   78 H26        2.0626    -8.6100     1.8137 H          1 ****  0
   79 H27        4.0982    -9.0174    -1.1630 H          1 ****  0
   80 H28        2.2976    -7.1915     0.0658 H          1 ****  0
   81 H29        3.8852    -9.3516     2.1569 H          1 ****  0
   82 H30        2.3513   -11.8793     1.9991 H          1 ****  0
   83 H31        2.7793   -10.3025     1.3758 H          1 ****  0
   84 H32        2.2383   -11.6753    -0.5484 H          1 ****  0
   85 H33        4.5109   -11.8772    -1.7139 H          1 ****  0
   86 H34        4.0894   -10.2966    -1.0958 H          1 ****  0
   87 H35        6.4196   -10.7092    -0.5546 H          1 ****  0
   88 H36        6.0536   -12.2762     0.1299 H          1 ****  0
   89 H37        4.4217    -9.0073     3.5742 H          1 ****  0
   90 H38        6.7908   -10.1193     5.4652 H          1 ****  0
   91 H39        5.6765   -11.3881     5.9102 H          1 ****  0
   92 H40        6.1133   -10.1608     7.0768 H          1 ****  0
   93 H41        3.2258   -10.8248     6.2771 H          1 ****  0
   94 H42        2.6872    -9.1753     6.0808 H          1 ****  0
   95 H43        3.7012    -9.6070     7.4385 H          1 ****  0
   96 H44        4.3385    -7.3848     5.4235 H          1 ****  0
   97 H45        6.0161    -7.8020     5.1768 H          1 ****  0
   98 H46        5.3385    -7.8256     6.7887 H          1 ****  0
   99 H47        3.0415   -15.9619    -0.4785 H          1 ****  0
  100 H48        6.6515   -15.8478     1.7881 H          1 ****  0
  101 H49        6.5470   -18.3175     1.9606 H          1 ****  0
  102 H50        4.6852   -19.5165     0.8949 H          1 ****  0
  103 H51        5.6290   -14.0252    -0.1901 H          1 ****  0
  104 H52        5.1069   -13.8776     1.4723 H          1 ****  0
@<TRIPOS>BOND
    1     1     2 ar
    2     1    10 ar
    3     2     3 ar
    4     2    11 1
    5     3     4 ar
    6     3    53 1
    7     4     9 ar
    8     4    54 1
    9     5     6 ar
   10     5     9 ar
   11     5    55 1
   12     6     7 ar
   13     6    56 1
   14     7     8 ar
   15     7    57 1
   16     8    10 ar
   17     8    58 1
   18     9    10 ar
   19    11    12 2
   20    11    13 am
   21    13    59 1
   22    14    13 1
   23    14    15 1
   24    14    17 1
   25    14    60 1
   26    15    16 2
   27    15    31 am
   28    17    18 1
   29    17    19 1
   30    17    61 1
   31    18    62 1
   32    18    63 1
   33    18    64 1
   34    19    65 1
   35    19    66 1
   36    19    67 1
   37    20    21 1
   38    20    32 1
   39    20    68 1
   40    20    69 1
   41    21    22 1
   42    21    30 1
   43    21    70 1
   44    22    23 1
   45    22    31 1
   46    22    71 1
   47    23    24 1
   48    23    72 1
   49    23    73 1
   50    24    25 ar
   51    24    29 ar
   52    25    26 ar
   53    25    74 1
   54    26    27 ar
   55    26    75 1
   56    27    28 ar
   57    27    76 1
   58    28    29 ar
   59    28    77 1
   60    29    78 1
   61    30    79 1
   62    31    80 1
   63    32    33 1
   64    32    37 1
   65    33    34 1
   66    33    38 1
   67    33    81 1
   68    34    35 1
   69    34    82 1
   70    34    83 1
   71    35    36 1
   72    35    52 1
   73    35    84 1
   74    36    37 1
   75    36    85 1
   76    36    86 1
   77    37    87 1
   78    37    88 1
   79    38    39 2
   80    38    40 am
   81    40    41 1
   82    40    89 1
   83    41    42 1
   84    41    43 1
   85    41    44 1
   86    42    90 1
   87    42    91 1
   88    42    92 1
   89    43    93 1
   90    43    94 1
   91    43    95 1
   92    44    96 1
   93    44    97 1
   94    44    98 1
   95    45    46 ar
   96    45    50 ar
   97    46    47 ar
   98    46    99 1
   99    47    48 ar
  100    47    51 1
  101    48    49 ar
  102    48   100 1
  103    49    50 ar
  104    49   101 1
  105    50   102 1
  106    51    52 1
  107    51   103 1
  108    51   104 1
@<TRIPOS>SUBSTRUCTURE
1   ****   1
@<TRIPOS>MOLECULE
1imb
27  27  1  0  0
SMALL
FORMAL_CHARGES
@<TRIPOS>ATOM
    1 C1         1.2321    -0.7207     0.1093 C.3        1 ****  0
    2 C2        -0.1218    -0.4022    -0.6924 C.3        1 ****  0
    3 C3        -0.4176    -0.2845     0.6606 C.3        1 ****  0
    4 C4        -0.4884     0.2686    -0.6003 C.3        1 ****  0
    5 C5         0.0307     0.4979     0.6473 C.3        1 ****  0
    6 C6         1.2293     0.8008    -0.3503 C.3        1 ****  0
    7 P1         2.9187    -1.7355    -1.7573 P.3        1 ****  0
    8 O1         2.5056    -1.4113    -0.2646 O.3        1 ****  0
    9 O2        -0.3100    -1.3961    -1.7795 O.3        1 ****  0
   10 O3        -1.3371    -0.9546     1.7089 O.3        1 ****  0
   11 O4        -1.5107     0.8424    -1.5424 O.3        1 ****  0
   12 O5         0.1510     1.6396     1.6855 O.3        1 ****  0
   13 O6         1.2429     0.9350    -1.7797 O.3        1 ****  0
   14 O7         4.2322    -2.1567    -1.7350 O.2        1 ****  0
   15 O8         2.8410    -0.5271    -2.6575 O.2        1 ****  -1
   16 O9         2.1021    -2.8776    -2.3235 O.2        1 ****  -1
   17 H1         1.2270    -0.7299     1.2019 H          1 ****  0
   18 H2        -0.1302     0.6481    -1.0167 H          1 ****  0
   19 H3         0.5060     0.1767     1.0385 H          1 ****  0
   20 H4         0.3684    -0.2364    -1.0677 H          1 ****  0
   21 H5         0.0775    -0.5299     1.0344 H          1 ****  0
   22 H6         2.1304     1.3002     0.0317 H          1 ****  0
   23 H7         0.3903    -1.8404    -2.2430 H          1 ****  0
   24 H8        -0.5120    -0.7016     2.1094 H          1 ****  0
   25 H9        -2.3484     0.3841    -1.7971 H          1 ****  0
   26 H10        0.3355     0.8014     2.0940 H          1 ****  0
   27 H11        0.4796     0.5217    -2.1923 H          1 ****  0
@<TRIPOS>BOND
    1     1     2 1
    2     1     6 1
    3     1     8 1
    4     1    17 1
    5     2     3 1
    6     2     9 1
    7     2    18 1
    8     3     4 1
    9     3    10 1
   10     3    19 1
   11     4     5 1
   12     4    11 1
   13     4    20 1
   14     5     6 1
   15     5    12 1
   16     5    21 1
   17     6    13 1
   18     6    22 1
   19     7     8 1
   20     7    14 2
   21     7    15 1
   22     7    16 1
   23     9    23 1
   24    10    24 1
   25    11    25 1
   26    12    26 1
   27    13    27 1
@<TRIPOS>SUBSTRUCTURE
1   ****   1
@<TRIPOS>MOLECULE
1ivb
24  24  1  0  0
SMALL
FORMAL_CHARGES
@<TRIPOS>ATOM
    1 C1         2.4209    -1.4694    -0.0181 C.2        1 ****  0.0000
    2 O1         3.5086    -0.8844    -0.0698 O.co2      1 ****  -0.50
    3 O2         2.3809    -2.8240     0.0652 O.co2      1 ****  -0.50
    4 C2         1.1793    -0.7008    -0.0444 C.ar       1 ****  0
    5 C3         1.2122     0.6750    -0.1518 C.ar       1 ****  0
    6 C4         0.0386     1.4166    -0.1738 C.ar       1 ****  0
    7 O3         0.2158     2.7519    -0.3163 O.3        1 ****  0
    8 C5        -1.2212     0.7962    -0.0699 C.ar       1 ****  0
    9 N1        -2.5535     1.5066    -0.0788 N.am       1 ****  0
   10 C6        -2.9052     2.9273     0.0070 C.2        1 ****  0
   11 O4        -4.1101     3.1940    -0.0660 O.2        1 ****  0
   12 C7        -1.9907     4.0803     0.2703 C.3        1 ****  0
   13 C8        -1.2327    -0.6103     0.0211 C.ar       1 ****  0
   14 N2        -2.4124    -1.4262     0.0884 N.pl3      1 ****  0.0000
   15 O5        -3.6047    -0.9632     0.0889 O.2        1 ****  0.0000
   16 O6        -2.2736    -2.5926     0.1325 O.2        1 ****  0.0000
   17 C9        -0.0456    -1.3345     0.0318 C.ar       1 ****  0
   18 H1         2.1549     1.1768    -0.2191 H          1 ****  0
   19 H2         1.1835     2.9494    -0.3712 H          1 ****  0
   20 H3        -3.3215     0.9438    -0.1371 H          1 ****  0
   21 H4        -1.2161     3.8998    -0.5115 H          1 ****  0
   22 H5        -1.4930     3.7276     1.2040 H          1 ****  0
   23 H6        -2.3697     4.9372     0.2951 H          1 ****  0
   24 H7        -0.0817    -2.4017     0.1002 H          1 ****  0
@<TRIPOS>BOND
    1     1     2 ar
    2     1     3 ar
    3     1     4 1
    4     4     5 ar
    5     4    17 ar
    6     5     6 ar
    7     5    18 1
    8     6     7 1
    9     6     8 ar
   10     7    19 1
   11     8     9 1
   12     8    13 ar
   13     9    10 am
   14     9    20 1
   15    10    11 2
   16    10    12 1
   17    12    21 1
   18    12    22 1
   19    12    23 1
   20    13    14 1
   21    13    17 ar
   22    14    15 2
   23    14    16 2
   24    17    24 1
@<TRIPOS>SUBSTRUCTURE
1   ****   1
@<TRIPOS>MOLECULE
1ivq
99  101  1  0  0
SMALL
FORMAL_CHARGES
@<TRIPOS>ATOM
    1 O1         1.9332     0.2960    -2.4303 O.2        1 ****  0
    2 C1         1.0808     0.8742    -1.7472 C.2        1 ****  0
    3 N1         1.2169    -0.6846     0.1146 N.pl3      1 ****  0
    4 C2         1.1719     0.7387    -0.2239 C.3        1 ****  0
    5 C3        -0.0062     1.3675     0.5435 C.3        1 ****  0
    6 C4        -1.3412     0.7190     0.1367 C.3        1 ****  0
    7 C5        -1.2470    -0.7773     0.1417 C.ar       1 ****  0
    8 C6        -2.4217    -1.5215     0.1362 C.ar       1 ****  0
    9 C7        -2.3700    -2.9088     0.1559 C.ar       1 ****  0
   10 C8        -1.1406    -3.5548     0.1880 C.ar       1 ****  0
   11 C9         0.0337    -2.8134     0.1806 C.ar       1 ****  0
   12 C10       -0.0153    -1.4237     0.1501 C.ar       1 ****  0
   13 N2         0.0791     1.6646    -2.3777 N.am       1 ****  0
   14 C11       -0.0978     1.6938    -3.8204 C.3        1 ****  0
   15 C12       -1.4745     2.2329    -4.0968 C.2        1 ****  0
   16 O2        -2.0632     2.8665    -3.2142 O.2        1 ****  0
   17 C13        0.0719     0.2989    -4.4872 C.3        1 ****  0
   18 C14       -0.9167    -0.7438    -3.9934 C.2        1 ****  0
   19 O3        -0.9316    -1.8535    -4.5366 O.2        1 ****  0
   20 N3        -1.8057    -0.4971    -2.9369 N.am       1 ****  0
   21 N4        -2.1481     1.9446    -5.2828 N.am       1 ****  0
   22 C15       -3.5173     2.3228    -5.3924 C.3        1 ****  0
   23 C16       -3.7739     2.8128    -6.8591 C.3        1 ****  0
   24 C17       -5.0963     3.6355    -7.2832 C.3        1 ****  0
   25 C18       -5.2494     4.9570    -6.4805 C.3        1 ****  0
   26 C19       -6.4808     2.8941    -7.2907 C.3        1 ****  0
   27 C20       -5.7995     4.6998    -5.0601 C.3        1 ****  0
   28 C21       -7.1195     2.7314    -5.8968 C.3        1 ****  0
   29 C22       -7.2082     4.0854    -5.1769 C.3        1 ****  0
   30 C23       -3.3315     0.8629    -4.9449 C.3        1 ****  0
   31 O4        -4.0023     0.7623    -3.6503 O.3        1 ****  0
   32 C24       -4.0855    -0.0739    -5.9382 C.3        1 ****  0
   33 C25       -4.2679    -1.6501    -5.6160 C.3        1 ****  0
   34 C26       -5.5195    -1.9722    -4.6189 C.3        1 ****  0
   35 C27       -4.2468    -2.6521    -4.0934 C.3        1 ****  0
   36 C28       -6.1517    -1.0997    -3.5146 C.3        1 ****  0
   37 C29       -4.7553    -2.1943    -7.0010 C.2        1 ****  0
   38 O5        -3.8801    -1.8787    -7.8148 O.2        1 ****  0
   39 N5        -5.3313    -3.4675    -7.0637 N.am       1 ****  0
   40 C30       -6.9087    -8.5448    -7.3806 C.3        1 ****  0
   41 C31       -6.2312    -7.1683    -7.6013 C.3        1 ****  0
   42 C32       -5.0448    -6.7795    -8.8842 C.3        1 ****  0
   43 C33       -5.1980    -6.3325    -6.4198 C.3        1 ****  0
   44 C34       -7.0872    -5.6596    -7.9571 C.3        1 ****  0
   45 H1         2.0748    -1.2227    -0.0614 H          1 ****  0
   46 H2         2.1065     1.2092     0.1116 H          1 ****  0
   47 H3        -0.0458     2.4226     0.3350 H          1 ****  0
   48 H4         0.1463     1.2342     1.6034 H          1 ****  0
   49 H5        -1.6148     1.0539    -0.8503 H          1 ****  0
   50 H6        -2.1135     1.0292     0.8255 H          1 ****  0
   51 H7        -3.3685    -1.0233     0.1168 H          1 ****  0
   52 H8        -3.2753    -3.4792     0.1465 H          1 ****  0
   53 H9        -1.0985    -4.6235     0.2183 H          1 ****  0
   54 H10        0.9797    -3.3131     0.1984 H          1 ****  0
   55 H11       -0.5201     2.2168    -1.8295 H          1 ****  0
   56 H12        0.6460     2.3763    -4.2533 H          1 ****  0
   57 H13        1.0836    -0.0608    -4.3080 H          1 ****  0
   58 H14       -0.0357     0.4054    -5.5681 H          1 ****  0
   59 H15       -1.8396     0.3785    -2.4975 H          1 ****  0
   60 H16       -2.4104    -1.2149    -2.6315 H          1 ****  0
   61 H17       -1.6938     1.4766    -6.0328 H          1 ****  0
   62 H18       -3.7019     3.1399    -4.6961 H          1 ****  0
   63 H19       -3.6902     1.9141    -7.5425 H          1 ****  0
   64 H20       -2.8693     3.4160    -7.1843 H          1 ****  0
   65 H21       -4.9049     3.9118    -8.3281 H          1 ****  0
   66 H22       -4.2863     5.4434    -6.4067 H          1 ****  0
   67 H23       -5.9196     5.6186    -7.0064 H          1 ****  0
   68 H24       -6.3543     1.9080    -7.7386 H          1 ****  0
   69 H25       -7.1736     3.4402    -7.9364 H          1 ****  0
   70 H26       -5.8566     5.6214    -4.5264 H          1 ****  0
   71 H27       -5.1552     4.0196    -4.5447 H          1 ****  0
   72 H28       -8.1093     2.3188    -6.0034 H          1 ****  0
   73 H29       -6.5263     2.0547    -5.3089 H          1 ****  0
   74 H30       -7.6182     3.9420    -4.1965 H          1 ****  0
   75 H31       -7.8403     4.7438    -5.7346 H          1 ****  0
   76 H32       -2.3114     0.6222    -4.9057 H          1 ****  0
   77 H33       -4.1886     1.5314    -3.0586 H          1 ****  0
   78 H34       -3.9519     0.3183    -6.9557 H          1 ****  0
   79 H35       -3.1287    -0.5365    -5.6714 H          1 ****  0
   80 H36       -3.3313    -2.1075    -5.2677 H          1 ****  0
   81 H37       -6.2566    -2.7464    -4.8467 H          1 ****  0
   82 H38       -3.4997    -1.9074    -3.9094 H          1 ****  0
   83 H39       -3.8852    -3.3404    -4.8298 H          1 ****  0
   84 H40       -4.4641    -3.1753    -3.1880 H          1 ****  0
   85 H41       -7.0584    -0.6787    -3.9258 H          1 ****  0
   86 H42       -5.4665    -0.2855    -3.3252 H          1 ****  0
   87 H43       -6.3396    -1.6461    -2.6588 H          1 ****  0
   88 H44       -6.0500    -3.7129    -6.4395 H          1 ****  0
   89 H45       -5.1160    -4.0536    -9.0278 H          1 ****  0
   90 H46       -3.8113    -4.5263    -7.9637 H          1 ****  0
   91 H47       -3.9851    -6.8884    -8.7974 H          1 ****  0
   92 H48       -5.2885    -6.4173    -9.8598 H          1 ****  0
   93 H49       -5.5129    -7.7369    -8.7346 H          1 ****  0
   94 H50       -5.5405    -5.6427    -5.6765 H          1 ****  0
   95 H51       -4.1360    -6.4403    -6.3404 H          1 ****  0
   96 H52       -5.6669    -7.2825    -6.2704 H          1 ****  0
   97 H53       -7.3237    -5.2965    -8.9367 H          1 ****  0
   98 H54       -7.4455    -4.9624    -7.2270 H          1 ****  0
   99 H55       -7.5473    -6.6100    -7.8041 H          1 ****  0
@<TRIPOS>BOND
    1     1     2 2
    2     2     4 1
    3     2    13 am
    4     3     4 1
    5     3    12 1
    6     3    45 1
    7     4     5 1
    8     4    46 1
    9     5     6 1
   10     5    47 1
   11     5    48 1
   12     6     7 1
   13     6    49 1
   14     6    50 1
   15     7     8 ar
   16     7    12 ar
   17     8     9 ar
   18     8    51 1
   19     9    10 ar
   20     9    52 1
   21    10    11 ar
   22    10    53 1
   23    11    12 ar
   24    11    54 1
   25    13    55 1
   26    14    13 1
   27    14    15 1
   28    14    17 1
   29    14    56 1
   30    15    16 2
   31    15    21 am
   32    17    18 1
   33    17    57 1
   34    17    58 1
   35    18    19 2
   36    18    20 am
   37    20    59 1
   38    20    60 1
   39    21    22 1
   40    21    61 1
   41    22    23 1
   42    22    30 1
   43    22    62 1
   44    23    24 1
   45    23    63 1
   46    23    64 1
   47    24    25 1
   48    24    26 1
   49    24    65 1
   50    25    27 1
   51    25    66 1
   52    25    67 1
   53    26    28 1
   54    26    68 1
   55    26    69 1
   56    27    29 1
   57    27    70 1
   58    27    71 1
   59    28    29 1
   60    28    72 1
   61    28    73 1
   62    29    74 1
   63    29    75 1
   64    30    31 1
   65    30    32 1
   66    30    76 1
   67    31    77 1
   68    32    33 1
   69    32    78 1
   70    32    79 1
   71    33    34 1
   72    33    37 1
   73    33    80 1
   74    34    35 1
   75    34    36 1
   76    34    81 1
   77    35    82 1
   78    35    83 1
   79    35    84 1
   80    36    85 1
   81    36    86 1
   82    36    87 1
   83    37    38 2
   84    37    39 am
   85    39    40 1
   86    39    88 1
   87    40    41 1
   88    40    89 1
   89    40    90 1
   90    41    42 1
   91    41    43 1
   92    41    44 1
   93    42    91 1
   94    42    92 1
   95    42    93 1
   96    43    94 1
   97    43    95 1
   98    43    96 1
   99    44    97 1
  100    44    98 1
  101    44    99 1
@<TRIPOS>SUBSTRUCTURE
1   ****   1
@<TRIPOS>MOLECULE
1jap
44  44  1  0  0
SMALL
FORMAL_CHARGES
@<TRIPOS>ATOM
    1 N1         0.6811    -1.0126    -0.2171 N.3        1 ****  0
    2 C1         0.8933     0.2235    -0.9443 C.3        1 ****  0
    3 C2         2.3803     0.7387    -0.5263 C.2        1 ****  0
    4 O1         3.3558     1.0458     0.1676 O.2        1 ****  0
    5 C3        -0.0738     1.1934    -0.3656 C.3        1 ****  0
    6 C4        -1.2143     0.4237     0.2825 C.3        1 ****  0
    7 C5        -0.7907    -1.0560     0.0562 C.3        1 ****  0
    8 N2         2.4736     0.7511    -1.9220 N.am       1 ****  0
    9 C6         3.7262     1.0373    -2.5602 C.3        1 ****  0
   10 C7         3.5505     1.2763    -4.0337 C.2        1 ****  0
   11 O2         2.4214     1.4412    -4.5048 O.2        1 ****  0
   12 C8         4.7905    -0.0549    -2.2302 C.3        1 ****  0
   13 C9         4.2826    -1.5112    -2.4941 C.3        1 ****  0
   14 C10        5.3463    -2.5083    -2.0045 C.3        1 ****  0
   15 C11        4.0016    -1.7881    -3.9860 C.3        1 ****  0
   16 N3         4.6714     1.3262    -4.8632 N.am       1 ****  0
   17 C12        4.5162     1.5302    -6.2725 C.3        1 ****  0
   18 C13        5.8549     1.8445    -6.8720 C.2        1 ****  0
   19 O3         6.8445     1.9647    -6.1421 O.2        1 ****  0
   20 N4         5.9837     1.9983    -8.2533 N.am       1 ****  0
   21 O4         7.1695     2.2649    -8.7806 O.3        1 ****  -1
   22 H1         1.1712    -1.6916     0.3825 H          1 ****  0
   23 H2         0.6988     0.0913    -2.0189 H          1 ****  0
   24 H3        -0.0167     2.2149     0.0384 H          1 ****  0
   25 H4        -0.1483     1.1461    -1.4621 H          1 ****  0
   26 H5        -2.1616     0.6319    -0.2365 H          1 ****  0
   27 H6        -1.2629     0.6454     1.3588 H          1 ****  0
   28 H7        -0.9892    -1.6453     0.9636 H          1 ****  0
   29 H8        -1.3234    -1.4695    -0.8128 H          1 ****  0
   30 H9         1.6398     0.5541    -2.4937 H          1 ****  0
   31 H10        4.1178     1.9790    -2.1481 H          1 ****  0
   32 H11        5.6881     0.1255    -2.8400 H          1 ****  0
   33 H12        5.0800     0.0352    -1.1729 H          1 ****  0
   34 H13        3.3345    -1.6282    -1.9487 H          1 ****  0
   35 H14        5.5167    -2.3706    -0.9266 H          1 ****  0
   36 H15        6.2876    -2.3453    -2.5498 H          1 ****  0
   37 H16        4.9942    -3.5343    -2.1877 H          1 ****  0
   38 H17        4.9331    -1.6144    -4.5447 H          1 ****  0
   39 H18        3.2466    -1.0653    -4.3289 H          1 ****  0
   40 H19        3.6469    -2.8184    -4.1370 H          1 ****  0
   41 H20        5.6132     1.2160    -4.4609 H          1 ****  0
   42 H21        4.1124     0.6171    -6.7342 H          1 ****  0
   43 H22        3.8283     2.3700    -6.4502 H          1 ****  0
   44 H23        5.1579     1.9046    -8.8619 H          1 ****  0
@<TRIPOS>BOND
    1     1     2 1
    2     1     7 1
    3     1    22 1
    4     2     3 1
    5     2     5 1
    6     2    23 1
    7     3     4 2
    8     3     8 am
    9     5     6 1
   10     5    24 1
   11     5    25 1
   12     6     7 1
   13     6    26 1
   14     6    27 1
   15     7    28 1
   16     7    29 1
   17     8    30 1
   18     9     8 1
   19     9    10 1
   20     9    12 1
   21     9    31 1
   22    10    11 2
   23    10    16 am
   24    12    13 1
   25    12    32 1
   26    12    33 1
   27    13    14 1
   28    13    15 1
   29    13    34 1
   30    14    35 1
   31    14    36 1
   32    14    37 1
   33    15    38 1
   34    15    39 1
   35    15    40 1
   36    16    17 1
   37    16    41 1
   38    17    18 1
   39    17    42 1
   40    17    43 1
   41    18    19 2
   42    18    20 am
   43    20    21 1
   44    20    44 1
@<TRIPOS>SUBSTRUCTURE
1   ****   1
@<TRIPOS>MOLECULE
1kel
39  39  1  0  0
SMALL
FORMAL_CHARGES
@<TRIPOS>ATOM
    1 C1         1.2038    -0.7034    -0.0001 C.ar       1 ****  0
    2 C2         1.2040     0.6862    -0.0000 C.ar       1 ****  0
    3 C3         0.0002     1.3808     0.0000 C.ar       1 ****  0
    4 C4        -1.2039     0.6866    -0.0000 C.ar       1 ****  0
    5 C5        -1.2040    -0.7032    -0.0001 C.ar       1 ****  0
    6 C6        -0.0002    -1.3977    -0.0002 C.ar       1 ****  0
    7 N1         0.0006    -2.7946    -0.0002 N.pl3      1 ****  0.0000
    8 O1        -1.1182    -3.4401    -0.0003 O.2        1 ****  0.0000
    9 O2         1.0187    -3.3829    -0.0003 O.2        1 ****  0.0000
   10 C7         0.0015     2.8890    -0.0050 C.3        1 ****  0
   11 N2         1.1500     3.4507    -0.7514 N.3        1 ****  0
   12 C8         1.1363     3.0723    -2.2049 C.3        1 ****  0
   13 P1        -0.2557     3.5311    -3.0312 P.3        1 ****  0
   14 O3        -0.1211     3.1561    -4.3527 O.co2      1 ****  0
   15 O4        -1.4768     2.8374    -2.4563 O.co2      1 ****  -1
   16 O5        -0.4524     5.0349    -2.9728 O.co2      1 ****  -1
   17 C9         1.1581     4.9138    -0.6016 C.3        1 ****  0
   18 C10        2.3989     5.5018    -1.2979 C.3        1 ****  0
   19 C11        2.3642     7.0366    -1.1928 C.3        1 ****  0
   20 C12        3.6093     7.6245    -1.8803 C.3        1 ****  0
   21 C13        3.5582     9.1232    -1.8134 C.2        1 ****  0.0000
   22 O6         2.4909     9.7416    -1.2448 O.co2      1 ****  -0.50
   23 O7         4.4843     9.7947    -2.2823 O.co2      1 ****  -0.50
   24 H1         2.1562    -1.2537    -0.0002 H          1 ****  0
   25 H2         2.1566     1.2362    -0.0000 H          1 ****  0
   26 H3        -2.1563     1.2369    -0.0000 H          1 ****  0
   27 H4        -2.1566    -1.2533    -0.0002 H          1 ****  0
   28 H5         0.0368     3.2527     1.0325 H          1 ****  0
   29 H6        -0.9325     3.2476    -0.4623 H          1 ****  0
   30 H7         1.2547     1.9817    -2.2858 H          1 ****  0
   31 H8         2.0082     3.5301    -2.6950 H          1 ****  0
   32 H9         1.1818     5.1731     0.4671 H          1 ****  0
   33 H10        0.2496     5.3335    -1.0583 H          1 ****  0
   34 H11        2.4004     5.2073    -2.3577 H          1 ****  0
   35 H12        3.3084     5.1217    -0.8097 H          1 ****  0
   36 H13        2.3568     7.3329    -0.1335 H          1 ****  0
   37 H14        1.4585     7.4179    -1.6871 H          1 ****  0
   38 H15        4.5146     7.2659    -1.3685 H          1 ****  0
   39 H16        3.6330     7.3059    -2.9329 H          1 ****  0
@<TRIPOS>BOND
    1     1     2 ar
    2     1     6 ar
    3     1    24 1
    4     2     3 ar
    5     2    25 1
    6     3     4 ar
    7     3    10 1
    8     4     5 ar
    9     4    26 1
   10     5     6 ar
   11     5    27 1
   12     6     7 1
   13     7     8 2
   14     7     9 2
   15    10    11 1
   16    10    28 1
   17    10    29 1
   18    11    12 1
   19    11    17 1
   20    12    13 1
   21    12    30 1
   22    12    31 1
   23    13    14 ar
   24    13    15 ar
   25    13    16 ar
   26    17    18 1
   27    17    32 1
   28    17    33 1
   29    18    19 1
   30    18    34 1
   31    18    35 1
   32    19    20 1
   33    19    36 1
   34    19    37 1
   35    20    21 1
   36    20    38 1
   37    20    39 1
   38    21    22 ar
   39    21    23 ar
@<TRIPOS>SUBSTRUCTURE
1   ****   1
@<TRIPOS>MOLECULE
1lah
22  21  1  0  0
SMALL
FORMAL_CHARGES
@<TRIPOS>ATOM
    1 N1         2.6279    -0.9590    -1.1832 N.4        1 ****  1
    2 C1         2.6130    -0.0881     0.0002 C.3        1 ****  0
    3 C2         1.3548     0.7334     0.0024 C.2        1 ****  0.0000
    4 O1         0.2547     0.1749    -0.0267 O.co2      1 ****  -0.50
    5 C3         3.8506     0.8277    -0.0143 C.3        1 ****  0
    6 C4         5.1199    -0.0466    -0.0036 C.3        1 ****  0
    7 C5         6.3733     0.8477    -0.0081 C.3        1 ****  0
    8 N2         7.5771     0.0020     0.0030 N.4        1 ****  1
    9 O2         1.4283     2.0898     0.0372 O.co2      1 ****  -0.50
   10 H1         3.4813    -1.5357    -1.1737 H          1 ****  0
   11 H2         2.6160    -0.3800    -2.0350 H          1 ****  0
   12 H3         1.7996    -1.5711    -1.1724 H          1 ****  0
   13 H4         2.6391    -0.7032     0.9118 H          1 ****  0
   14 H5         3.8391     1.4476    -0.9230 H          1 ****  0
   15 H6         3.8422     1.4738     0.8759 H          1 ****  0
   16 H7         5.1233    -0.6752     0.8991 H          1 ****  0
   17 H8         5.1287    -0.6913    -0.8948 H          1 ****  0
   18 H9         6.3695     1.4909     0.8843 H          1 ****  0
   19 H10        6.3739     1.4741    -0.9123 H          1 ****  0
   20 H11        7.5831    -0.6003    -0.8326 H          1 ****  0
   21 H12        7.5783    -0.5852     0.8492 H          1 ****  0
   22 H13        8.4163     0.5992    -0.0000 H          1 ****  0
@<TRIPOS>BOND
    1     1    10 1
    2     1    11 1
    3     1    12 1
    4     2     1 1
    5     2     3 1
    6     2     5 1
    7     2    13 1
    8     3     4 ar
    9     3     9 ar
   10     5     6 1
   11     5    14 1
   12     5    15 1
   13     6     7 1
   14     6    16 1
   15     6    17 1
   16     7     8 1
   17     7    18 1
   18     7    19 1
   19     8    20 1
   20     8    21 1
   21     8    22 1
@<TRIPOS>SUBSTRUCTURE
1   ****   1
@<TRIPOS>MOLECULE
1lcp
22  21  1  0  0
SMALL
FORMAL_CHARGES
@<TRIPOS>ATOM
    1 C1         3.8795     0.2918     0.9204 C.3        1 ****  0
    2 C2         2.6248    -0.0226     0.0277 C.3        1 ****  0
    3 C3         1.3433     0.8362     0.0141 C.3        1 ****  0
    4 C4         1.3145     1.7082    -1.2556 C.3        1 ****  0
    5 C5         0.1061    -0.0810     0.0335 C.3        1 ****  0
    6 N1         3.8408     1.7795     1.1762 N.3        1 ****  0
    7 P1         5.2448    -0.0223     0.0308 P.3        1 ****  0
    8 O1         5.2745    -0.8436     1.3060 O.co2      1 ****  -1
    9 O2         5.2593    -0.9520    -1.1682 O.co2      1 ****  -1
   10 O3         6.3479     0.8010    -0.0114 O.co2      1 ****  0
   11 H1         3.8978    -0.3126     1.8393 H          1 ****  0
   12 H2         2.6432    -0.6377     0.9394 H          1 ****  0
   13 H3         2.6359    -0.6775    -0.8561 H          1 ****  0
   14 H4         1.3337     1.4848     0.9024 H          1 ****  0
   15 H5         1.3307     1.0603    -2.1444 H          1 ****  0
   16 H6         2.1962     2.3659    -1.2674 H          1 ****  0
   17 H7         0.4002     2.3197    -1.2634 H          1 ****  0
   18 H8         0.1226    -0.6995     0.9430 H          1 ****  0
   19 H9         0.1192    -0.7331    -0.8522 H          1 ****  0
   20 H10       -0.8072     0.5320     0.0238 H          1 ****  0
   21 H11        4.6633     2.3992     1.1576 H          1 ****  0
   22 H12        3.8569     1.2125     2.0359 H          1 ****  0
@<TRIPOS>BOND
    1     1     2 1
    2     1     6 1
    3     1     7 1
    4     1    11 1
    5     2     3 1
    6     2    12 1
    7     2    13 1
    8     3     4 1
    9     3     5 1
   10     3    14 1
   11     4    15 1
   12     4    16 1
   13     4    17 1
   14     5    18 1
   15     5    19 1
   16     5    20 1
   17     6    21 1
   18     6    22 1
   19     7     8 ar
   20     7     9 ar
   21     7    10 ar
@<TRIPOS>SUBSTRUCTURE
1   ****   1
@<TRIPOS>MOLECULE
1ldm
8  7  1  0  0
SMALL
FORMAL_CHARGES
@<TRIPOS>ATOM
    1 C1         1.3119     0.7265    -0.0001 C.2        1 ****  0
    2 N1         1.2944     2.1230     0.0000 N.am       1 ****  0
    3 O1         0.2489     0.0952    -0.0001 O.2        1 ****  0
    4 C2         2.5884     0.0106    -0.0001 C.2        1 ****  0.0000
    5 O2         3.6513     0.6420    -0.0001 O.co2      1 ****  -0.50
    6 O3         2.6055    -1.3479    -0.0001 O.co2      1 ****  -0.50
    7 H1         2.1799     2.6491     0.0000 H          1 ****  0
    8 H2         0.3960     2.6268     0.0000 H          1 ****  0
@<TRIPOS>BOND
    1     1     2 am
    2     1     3 2
    3     1     4 1
    4     2     7 1
    5     2     8 1
    6     4     5 ar
    7     4     6 ar
@<TRIPOS>SUBSTRUCTURE
1   ****   1
@<TRIPOS>MOLECULE
1lic
53  52  1  0  0
SMALL
FORMAL_CHARGES
@<TRIPOS>ATOM
    1 C1        19.2021     0.9146     0.0042 C.3        1 ****  0
    2 C2        17.9653    -0.0042     0.0458 C.3        1 ****  0
    3 C3        16.6881     0.8572    -0.0109 C.3        1 ****  0
    4 C4        15.4417    -0.0497     0.0275 C.3        1 ****  0
    5 C5        14.1716     0.8242    -0.0181 C.3        1 ****  0
    6 C6        12.9176    -0.0728     0.0172 C.3        1 ****  0
    7 C7        11.6531     0.8099    -0.0184 C.3        1 ****  0
    8 C8        10.3944    -0.0806     0.0129 C.3        1 ****  0
    9 C9         9.1337     0.8075    -0.0151 C.3        1 ****  0
   10 C10        7.8726    -0.0793     0.0115 C.3        1 ****  0
   11 C11        6.6150     0.8122    -0.0115 C.3        1 ****  0
   12 C12        5.3530    -0.0720     0.0104 C.3        1 ****  0
   13 C13        4.0981     0.8218    -0.0095 C.3        1 ****  0
   14 C14        2.8358    -0.0607     0.0086 C.3        1 ****  0
   15 C15        1.5825     0.8347    -0.0102 C.3        1 ****  0
   16 C16        0.3198    -0.0468     0.0055 C.3        1 ****  0
   17 S1        20.7112    -0.0831     0.0823 S.O2       1 ****  0
   18 O1        20.7226    -0.8810     1.3749 O.co2      1 ****  0
   19 O2        20.7549    -1.1292    -1.2145 O.co2      1 ****  -1
   20 O3        21.9222     0.8260     0.0403 O.co2      1 ****  0
   21 H1        19.1938     1.4954    -0.9299 H          1 ****  0
   22 H2        19.1739     1.6037     0.8612 H          1 ****  0
   23 H3        17.9719    -0.5885     0.9778 H          1 ****  0
   24 H4        17.9857    -0.6867    -0.8166 H          1 ****  0
   25 H5        16.6831     1.4450    -0.9407 H          1 ****  0
   26 H6        16.6691     1.5405     0.8509 H          1 ****  0
   27 H7        15.4458    -0.6418     0.9545 H          1 ****  0
   28 H8        15.4527    -0.7256    -0.8403 H          1 ****  0
   29 H9        14.1688     1.4194    -0.9431 H          1 ****  0
   30 H10       14.1615     1.5004     0.8495 H          1 ****  0
   31 H11       12.9198    -0.6720     0.9397 H          1 ****  0
   32 H12       12.9212    -0.7427    -0.8553 H          1 ****  0
   33 H13       11.6516     1.4121    -0.9389 H          1 ****  0
   34 H14       11.6490     1.4790     0.8547 H          1 ****  0
   35 H15       10.3950    -0.6860     0.9314 H          1 ****  0
   36 H16       10.3935    -0.7451    -0.8637 H          1 ****  0
   37 H17        9.1334     1.4158    -0.9316 H          1 ****  0
   38 H18        9.1331     1.4703     0.8628 H          1 ****  0
   39 H19        7.8716    -0.6896     0.9266 H          1 ****  0
   40 H20        7.8697    -0.7390    -0.8687 H          1 ****  0
   41 H21        6.6159     1.4253    -0.9248 H          1 ****  0
   42 H22        6.6161     1.4700     0.8701 H          1 ****  0
   43 H23        5.3501    -0.6862     0.9230 H          1 ****  0
   44 H24        5.3493    -0.7279    -0.8726 H          1 ****  0
   45 H25        4.1004     1.4381    -0.9207 H          1 ****  0
   46 H26        4.1000     1.4760     0.8748 H          1 ****  0
   47 H27        2.8312    -0.6773     0.9195 H          1 ****  0
   48 H28        2.8323    -0.7140    -0.8764 H          1 ****  0
   49 H29        1.5858     1.4527    -0.9202 H          1 ****  0
   50 H30        1.5846     1.4869     0.8755 H          1 ****  0
   51 H31        0.3145    -0.6647     0.9156 H          1 ****  0
   52 H32        0.3165    -0.6996    -0.8799 H          1 ****  0
   53 H33       -0.5753     0.5925    -0.0079 H          1 ****  0
@<TRIPOS>BOND
    1     1     2 1
    2     1    17 1
    3     1    21 1
    4     1    22 1
    5     2     3 1
    6     2    23 1
    7     2    24 1
    8     3     4 1
    9     3    25 1
   10     3    26 1
   11     4     5 1
   12     4    27 1
   13     4    28 1
   14     5     6 1
   15     5    29 1
   16     5    30 1
   17     6     7 1
   18     6    31 1
   19     6    32 1
   20     7     8 1
   21     7    33 1
   22     7    34 1
   23     8     9 1
   24     8    35 1
   25     8    36 1
   26     9    10 1
   27     9    37 1
   28     9    38 1
   29    10    11 1
   30    10    39 1
   31    10    40 1
   32    11    12 1
   33    11    41 1
   34    11    42 1
   35    12    13 1
   36    12    43 1
   37    12    44 1
   38    13    14 1
   39    13    45 1
   40    13    46 1
   41    14    15 1
   42    14    47 1
   43    14    48 1
   44    15    16 1
   45    15    49 1
   46    15    50 1
   47    16    51 1
   48    16    52 1
   49    16    53 1
   50    17    18 ar
   51    17    19 ar
   52    17    20 ar
@<TRIPOS>SUBSTRUCTURE
1   ****   1
@<TRIPOS>MOLECULE
1lna
41  40  1  0  0
SMALL
FORMAL_CHARGES
@<TRIPOS>ATOM
    1 N1         2.7481    -1.0022     1.1093 N.4        1 ****  1
    2 C1         2.7390    -0.0823    -0.0362 C.3        1 ****  0
    3 C2         4.0182     0.7283    -0.0240 C.2        1 ****  0
    4 O1         3.9848     1.9616     0.0188 O.2        1 ****  0
    5 C3         1.4803     0.8241     0.0171 C.3        1 ****  0
    6 C4         0.2232    -0.0624     0.0780 C.3        1 ****  0
    7 C5         1.3975     1.7061    -1.2503 C.3        1 ****  0
    8 N2         5.2547     0.0740    -0.0144 N.am       1 ****  0
    9 C6         6.4399     0.0833     0.8756 C.3        1 ****  0
   10 C7         6.4992     1.4864     1.4450 C.2        1 ****  0.0000
   11 O2         6.5326     0.7773     2.4567 O.co2      1 ****  -0.50
   12 C8         7.6770    -0.0735    -0.0602 C.3        1 ****  0
   13 C9         8.9550     0.7808     0.0688 C.3        1 ****  0
   14 C10       10.2067    -0.1053    -0.0627 C.3        1 ****  0
   15 C11       11.4648     0.7764     0.0710 C.3        1 ****  0
   16 N3        12.6700    -0.0570    -0.0461 N.4        1 ****  1
   17 O3         6.4908     2.8382     1.5619 O.co2      1 ****  -0.50
   18 H1         2.8049    -0.4660     1.9869 H          1 ****  0
   19 H2         3.5561    -1.6373     1.0401 H          1 ****  0
   20 H3         1.8800    -1.5565     1.1063 H          1 ****  0
   21 H4         2.6933    -0.6476    -0.9787 H          1 ****  0
   22 H5         1.5449     1.4679     0.9067 H          1 ****  0
   23 H6         0.2577    -0.6932     0.9784 H          1 ****  0
   24 H7         0.1762    -0.7008    -0.8166 H          1 ****  0
   25 H8        -0.6716     0.5763     0.1159 H          1 ****  0
   26 H9         1.3457     1.0578    -2.1374 H          1 ****  0
   27 H10        2.2990     2.3333    -1.3121 H          1 ****  0
   28 H11        0.5032     2.3449    -1.2045 H          1 ****  0
   29 H12        5.3021    -0.9528    -0.0804 H          1 ****  0
   30 H13        6.4238    -0.6852     1.6625 H          1 ****  0
   31 H14        7.6560    -0.5584    -1.0473 H          1 ****  0
   32 H15        7.6616    -0.8358     0.7327 H          1 ****  0
   33 H16        8.9647     1.5442    -0.7231 H          1 ****  0
   34 H17        8.9639     1.2797     1.0491 H          1 ****  0
   35 H18       10.2074    -0.5990    -1.0456 H          1 ****  0
   36 H19       10.2047    -0.8650     0.7329 H          1 ****  0
   37 H20       11.4603     1.2764     1.0508 H          1 ****  0
   38 H21       11.4665     1.5352    -0.7254 H          1 ****  0
   39 H22       12.6748    -0.5247    -0.9638 H          1 ****  0
   40 H23       12.6684    -0.7676     0.6995 H          1 ****  0
   41 H24       13.5092     0.5334     0.0433 H          1 ****  0
@<TRIPOS>BOND
    1     1    18 1
    2     1    19 1
    3     1    20 1
    4     2     1 1
    5     2     3 1
    6     2     5 1
    7     2    21 1
    8     3     4 2
    9     3     8 am
   10     5     6 1
   11     5     7 1
   12     5    22 1
   13     6    23 1
   14     6    24 1
   15     6    25 1
   16     7    26 1
   17     7    27 1
   18     7    28 1
   19     8    29 1
   20     9     8 1
   21     9    10 1
   22     9    12 1
   23     9    30 1
   24    10    11 ar
   25    10    17 ar
   26    12    13 1
   27    12    31 1
   28    12    32 1
   29    13    14 1
   30    13    33 1
   31    13    34 1
   32    14    15 1
   33    14    35 1
   34    14    36 1
   35    15    16 1
   36    15    37 1
   37    15    38 1
   38    16    39 1
   39    16    40 1
   40    16    41 1
@<TRIPOS>SUBSTRUCTURE
1   ****   1
@<TRIPOS>MOLECULE
1lpm
52  52  1  0  0
SMALL
FORMAL_CHARGES
@<TRIPOS>ATOM
    1 C1         4.0009    -2.3013    -2.1833 C.3        1 ****  0
    2 C2         4.1216    -2.4161    -3.7117 C.3        1 ****  0
    3 C3         5.4389    -3.1153    -4.0835 C.3        1 ****  0
    4 C4         5.5381    -3.2118    -5.6163 C.3        1 ****  0
    5 C5         6.8512    -3.9105    -6.0082 C.3        1 ****  0
    6 C6         6.9427    -4.0003    -7.5427 C.3        1 ****  0
    7 C7         1.2644    -0.7286     0.2469 C.3        1 ****  0
    8 C8         0.0061    -1.4564    -0.2647 C.3        1 ****  0
    9 C9        -0.3602    -0.2172     0.6238 C.3        1 ****  0
   10 C10       -1.2521     0.7230    -0.2610 C.3        1 ****  0
   11 C11        0.0083     1.4494     0.2490 C.3        1 ****  0
   12 C12        1.2658     0.7239    -0.2685 C.3        1 ****  0
   13 C13       -1.2806    -0.7510     1.7867 C.3        1 ****  0
   14 C14        2.5271     1.4501     0.2478 C.3        1 ****  0
   15 C15        2.5390     2.9011    -0.2701 C.3        1 ****  0
   16 C16        2.5367     1.4538     1.7898 C.3        1 ****  0
   17 O1         2.4560    -1.4173    -0.2483 O.3        1 ****  0
   18 O2         2.5930    -0.1751    -2.4853 O.2        1 ****  -1
   19 P1         2.5760    -1.5391    -1.8218 P.3        1 ****  0
   20 O3         1.5440    -2.2936    -2.3463 O.2        1 ****  0
   21 H1         4.0058    -3.3067    -1.7369 H          1 ****  0
   22 H2         4.8434    -1.7133    -1.7903 H          1 ****  0
   23 H3         3.2755    -3.0005    -4.1023 H          1 ****  0
   24 H4         4.1041    -1.4106    -4.1573 H          1 ****  0
   25 H5         6.2873    -2.5319    -3.6964 H          1 ****  0
   26 H6         5.4553    -4.1262    -3.6502 H          1 ****  0
   27 H7         4.6864    -3.7909    -6.0027 H          1 ****  0
   28 H8         5.5186    -2.2010    -6.0498 H          1 ****  0
   29 H9         7.7040    -3.3320    -5.6235 H          1 ****  0
   30 H10        6.8710    -4.9237    -5.5803 H          1 ****  0
   31 H11        6.9243    -2.9882    -7.9731 H          1 ****  0
   32 H12        6.0908    -4.5788    -7.9297 H          1 ****  0
   33 H13        7.8811    -4.4998    -7.8251 H          1 ****  0
   34 H14        1.2655    -0.7278     1.3469 H          1 ****  0
   35 H15        0.0057    -1.4583    -1.3647 H          1 ****  0
   36 H16        0.0069    -2.4935     0.1021 H          1 ****  0
   37 H17        0.5352     0.2989     1.0007 H          1 ****  0
   38 H18       -2.1481     1.2429     0.1089 H          1 ****  0
   39 H19       -1.2564     0.7271    -1.3610 H          1 ****  0
   40 H20        0.0073     2.4865    -0.1175 H          1 ****  0
   41 H21        0.0128     1.4496     1.3489 H          1 ****  0
   42 H22        1.2659     0.7254    -1.3685 H          1 ****  0
   43 H23       -0.3848    -0.2417     2.1718 H          1 ****  0
   44 H24       -1.2872    -1.7929     2.1393 H          1 ****  0
   45 H25       -2.1817    -0.2343     2.1486 H          1 ****  0
   46 H26        3.4202     0.9228    -0.1187 H          1 ****  0
   47 H27        1.6414     3.4255     0.0897 H          1 ****  0
   48 H28        2.5433     2.8970    -1.3701 H          1 ****  0
   49 H29        3.4378     3.4171     0.0984 H          1 ****  0
   50 H30        2.5350     0.4167     2.1564 H          1 ****  0
   51 H31        1.6389     1.9718     2.1582 H          1 ****  0
   52 H32        3.4362     1.9717     2.1538 H          1 ****  0
@<TRIPOS>BOND
    1     1     2 1
    2     1    19 1
    3     1    21 1
    4     1    22 1
    5     2     3 1
    6     2    23 1
    7     2    24 1
    8     3     4 1
    9     3    25 1
   10     3    26 1
   11     4     5 1
   12     4    27 1
   13     4    28 1
   14     5     6 1
   15     5    29 1
   16     5    30 1
   17     6    31 1
   18     6    32 1
   19     6    33 1
   20     7     8 1
   21     7    12 1
   22     7    17 1
   23     7    34 1
   24     8     9 1
   25     8    35 1
   26     8    36 1
   27     9    10 1
   28     9    13 1
   29     9    37 1
   30    10    11 1
   31    10    38 1
   32    10    39 1
   33    11    12 1
   34    11    40 1
   35    11    41 1
   36    12    14 1
   37    12    42 1
   38    13    43 1
   39    13    44 1
   40    13    45 1
   41    14    15 1
   42    14    16 1
   43    14    46 1
   44    15    47 1
   45    15    48 1
   46    15    49 1
   47    16    50 1
   48    16    51 1
   49    16    52 1
   50    19    17 1
   51    19    18 1
   52    19    20 2
@<TRIPOS>SUBSTRUCTURE
1   ****   1
@<TRIPOS>MOLECULE
1lst
25  24  1  0  0
SMALL
FORMAL_CHARGES
@<TRIPOS>ATOM
    1 N1         2.6367    -0.9862    -1.1531 N.4        1 ****  1
    2 C1         2.6313    -0.0927     0.0133 C.3        1 ****  0
    3 C2         1.3887     0.7459    -0.0003 C.2        1 ****  0.0000
    4 O1         0.2796     0.2045    -0.0885 O.co2      1 ****  -0.50
    5 C3         3.8718     0.8160    -0.0232 C.3        1 ****  0
    6 C4         5.1369    -0.0584     0.0003 C.3        1 ****  0
    7 C5         6.3859     0.8390    -0.0219 C.3        1 ****  0
    8 C6         7.6471    -0.0435     0.0055 C.3        1 ****  0
    9 N2         8.8440     0.8089    -0.0096 N.4        1 ****  1
   10 O2         1.4795     2.0977     0.0849 O.co2      1 ****  -0.50
   11 H1         2.6118    -0.4242    -2.0159 H          1 ****  0
   12 H2         1.8094    -1.5988    -1.1198 H          1 ****  0
   13 H3         3.4907    -1.5620    -1.1430 H          1 ****  0
   14 H4         2.6521    -0.6957     0.9330 H          1 ****  0
   15 H5         3.8592     1.4186    -0.9433 H          1 ****  0
   16 H6         3.8684     1.4799     0.8538 H          1 ****  0
   17 H7         5.1446    -0.7173    -0.8805 H          1 ****  0
   18 H8         5.1425    -0.6703     0.9144 H          1 ****  0
   19 H9         6.3845     1.4478    -0.9381 H          1 ****  0
   20 H10        6.3812     1.4986     0.8584 H          1 ****  0
   21 H11        7.6551    -0.7008    -0.8764 H          1 ****  0
   22 H12        7.6459    -0.6565     0.9190 H          1 ****  0
   23 H13        8.8383     1.4242     0.8164 H          1 ****  0
   24 H14        8.8462     1.3833    -0.8645 H          1 ****  0
   25 H15        9.6878     0.2185     0.0088 H          1 ****  0
@<TRIPOS>BOND
    1     1    11 1
    2     1    12 1
    3     1    13 1
    4     2     1 1
    5     2     3 1
    6     2     5 1
    7     2    14 1
    8     3     4 ar
    9     3    10 ar
   10     5     6 1
   11     5    15 1
   12     5    16 1
   13     6     7 1
   14     6    17 1
   15     6    18 1
   16     7     8 1
   17     7    19 1
   18     7    20 1
   19     8     9 1
   20     8    21 1
   21     8    22 1
   22     9    23 1
   23     9    24 1
   24     9    25 1
@<TRIPOS>SUBSTRUCTURE
1   ****   1
@<TRIPOS>MOLECULE
1lyb
110  109  1  0  0
SMALL
FORMAL_CHARGES
@<TRIPOS>ATOM
    1 C1         3.1573    -0.1130     0.1225 C.3        1 ****  0
    2 C2         1.8714     0.7451     0.0334 C.3        1 ****  0
    3 C3         0.6417    -0.1641     0.2151 C.3        1 ****  0
    4 C4         1.7845     1.4288    -1.3492 C.3        1 ****  0
    5 C5         4.3933     0.7537     0.0651 C.2        1 ****  0
    6 O1         4.2982     1.9835     0.1249 O.2        1 ****  0
    7 N1         5.6588     0.1523    -0.0111 N.am       1 ****  0
    8 C6         6.8025     0.2232    -0.9258 C.3        1 ****  0
    9 C7         8.0668     0.0733     0.0014 C.2        1 ****  0
   10 O2         7.9131    -1.1394     0.1528 O.2        1 ****  0
   11 C8         6.8123     1.7305    -1.4690 C.3        1 ****  0
   12 C9         8.0006     2.7013    -1.6075 C.3        1 ****  0
   13 C10        6.8159     0.7238    -2.6348 C.3        1 ****  0
   14 N2         9.3698     0.6249    -0.0077 N.am       1 ****  0
   15 C11       10.5071     0.5554     0.9362 C.3        1 ****  0
   16 C12       11.7864     0.6403     0.0295 C.2        1 ****  0
   17 O3        11.6666     1.8527    -0.1575 O.2        1 ****  0
   18 C13       10.4701    -0.9355     1.5314 C.3        1 ****  0
   19 C14       11.6321    -1.9311     1.7127 C.3        1 ****  0
   20 C15       10.4909     0.1086     2.6633 C.3        1 ****  0
   21 N3        13.0786     0.0535     0.0645 N.am       1 ****  0
   22 C16       14.3010     0.0873    -0.8809 C.3        1 ****  0
   23 C17       14.3140     1.5757    -1.4875 C.3        1 ****  0
   24 C18       14.4849     0.5880    -2.6871 C.3        1 ****  0
   25 C19       14.6347     1.4012    -3.9841 C.3        1 ****  0
   26 C20       13.2788    -0.3632    -2.8430 C.3        1 ****  0
   27 C21       15.5219     0.7380     0.8768 C.3        1 ****  0
   28 O4        15.5148    -0.6653     1.3404 O.3        1 ****  0
   29 C22       16.8238     0.8745    -0.0152 C.3        1 ****  0
   30 C23       18.0614     0.0075     0.0503 C.2        1 ****  0
   31 O5        17.9443    -1.2230     0.0302 O.2        1 ****  0
   32 N4        19.3465     0.6024     0.0789 N.am       1 ****  0
   33 C24       20.6329     0.4476     0.9248 C.3        1 ****  0
   34 C25       21.7809     0.6513    -0.0963 C.2        1 ****  0
   35 O6        21.6609     1.8563    -0.3440 O.2        1 ****  0
   36 C26       20.6779    -1.0961     1.3023 C.3        1 ****  0
   37 N5        23.0646     0.0718     0.0356 N.am       1 ****  0
   38 C27       24.3135     0.0705    -0.8846 C.3        1 ****  0
   39 C28       24.3547     1.5447    -1.5291 C.3        1 ****  0
   40 C29       24.5849     0.5303    -2.6943 C.3        1 ****  0
   41 C30       24.7816     1.3123    -4.0045 C.3        1 ****  0
   42 C31       23.3979    -0.4388    -2.8712 C.3        1 ****  0
   43 C32       25.4991     0.7793     0.8596 C.3        1 ****  0
   44 O7        25.4789    -0.6110     1.3883 O.3        1 ****  0
   45 C33       26.7965     0.8637    -0.0251 C.3        1 ****  0
   46 C34       28.0222     0.0038     0.1033 C.2        1 ****  0.0000
   47 O8        29.1454     0.5178     0.0481 O.co2      1 ****  -0.50
   48 O9        27.8985    -1.3399     0.2564 O.co2      1 ****  -0.50
   49 H1         3.1771    -0.8270    -0.7141 H          1 ****  0
   50 H2         3.1534    -0.6758     1.0676 H          1 ****  0
   51 H3         1.8979     1.5130     0.8205 H          1 ****  0
   52 H4         0.6866    -0.6546     1.1987 H          1 ****  0
   53 H5         0.6268    -0.9284    -0.5759 H          1 ****  0
   54 H6        -0.2736     0.4426     0.1523 H          1 ****  0
   55 H7         1.7664     0.6585    -2.1342 H          1 ****  0
   56 H8         2.6652     2.0722    -1.4915 H          1 ****  0
   57 H9         0.8696     2.0368    -1.4070 H          1 ****  0
   58 H10        5.7419    -0.8742     0.0082 H          1 ****  0
   59 H11        6.7631    -0.5205    -1.7352 H          1 ****  0
   60 H12        5.8902     2.3296    -1.4967 H          1 ****  0
   61 H13        8.9329     2.1225    -1.5312 H          1 ****  0
   62 H14        7.9600     3.4212    -0.7768 H          1 ****  0
   63 H15        7.9586     3.2297    -2.5714 H          1 ****  0
   64 H16        5.9303     0.0755    -2.5607 H          1 ****  0
   65 H17        7.7252     0.1069    -2.5823 H          1 ****  0
   66 H18        6.7949     1.2662    -3.5915 H          1 ****  0
   67 H19        9.4911     1.6402    -0.1317 H          1 ****  0
   68 H20       10.4805     1.3292     1.7176 H          1 ****  0
   69 H21        9.5317    -1.5081     1.5702 H          1 ****  0
   70 H22       12.5800    -1.3795     1.6279 H          1 ****  0
   71 H23       11.5809    -2.6770     0.9059 H          1 ****  0
   72 H24       11.5672    -2.4265     2.6927 H          1 ****  0
   73 H25        9.6245     0.7783     2.5589 H          1 ****  0
   74 H26       11.4175     0.6981     2.5999 H          1 ****  0
   75 H27       10.4458    -0.4010     3.6371 H          1 ****  0
   76 H28       13.1698    -0.9622     0.2087 H          1 ****  0
   77 H29       14.3287    -0.6866    -1.6621 H          1 ****  0
   78 H30       13.3820     2.1438    -1.6239 H          1 ****  0
   79 H31       15.1474     2.2936    -1.4960 H          1 ****  0
   80 H32       15.3769    -0.0243    -2.4881 H          1 ****  0
   81 H33       15.5201     2.0504    -3.9167 H          1 ****  0
   82 H34       13.7374     2.0171    -4.1433 H          1 ****  0
   83 H35       14.7554     0.7115    -4.8325 H          1 ****  0
   84 H36       12.3767     0.2480    -2.9936 H          1 ****  0
   85 H37       13.1676    -0.9328    -1.9086 H          1 ****  0
   86 H38       13.4259    -1.0457    -3.6931 H          1 ****  0
   87 H39       15.4954     1.4862     1.6826 H          1 ****  0
   88 H40       14.7121    -1.2423     1.3929 H          1 ****  0
   89 H41       16.8330     1.5867     0.8232 H          1 ****  0
   90 H42       16.8187     1.4318    -0.9636 H          1 ****  0
   91 H43       19.4288     1.6282     0.1233 H          1 ****  0
   92 H44       20.7159     1.1050     1.8029 H          1 ****  0
   93 H45       19.7951    -1.7497     1.3594 H          1 ****  0
   94 H46       20.6978    -0.4449     2.1886 H          1 ****  0
   95 H47       21.5956    -1.7008     1.2549 H          1 ****  0
   96 H48       23.1461    -0.9324     0.2500 H          1 ****  0
   97 H49       24.3589    -0.7242    -1.6438 H          1 ****  0
   98 H50       23.4218     2.0966    -1.7165 H          1 ****  0
   99 H51       25.1788     2.2734    -1.5237 H          1 ****  0
  100 H52       25.4747    -0.0668    -2.4459 H          1 ****  0
  101 H53       25.6574     1.9720    -3.9164 H          1 ****  0
  102 H54       23.8862     1.9149    -4.2165 H          1 ****  0
  103 H55       24.9443     0.6030    -4.8294 H          1 ****  0
  104 H56       22.4950     0.1563    -3.0726 H          1 ****  0
  105 H57       23.2573    -0.9862    -1.9275 H          1 ****  0
  106 H58       23.5862    -1.1408    -3.6969 H          1 ****  0
  107 H59       25.4720     1.5677     1.6262 H          1 ****  0
  108 H60       24.6688    -1.1756     1.4586 H          1 ****  0
  109 H61       26.8046     1.3672    -1.0031 H          1 ****  0
  110 H62       26.7967     1.6207     0.7730 H          1 ****  0
@<TRIPOS>BOND
    1     1     2 1
    2     1     5 1
    3     1    49 1
    4     1    50 1
    5     2     3 1
    6     2     4 1
    7     2    51 1
    8     3    52 1
    9     3    53 1
   10     3    54 1
   11     4    55 1
   12     4    56 1
   13     4    57 1
   14     5     6 2
   15     5     7 am
   16     7    58 1
   17     8     7 1
   18     8     9 1
   19     8    11 1
   20     8    59 1
   21     9    10 2
   22     9    14 am
   23    11    12 1
   24    11    13 1
   25    11    60 1
   26    12    61 1
   27    12    62 1
   28    12    63 1
   29    13    64 1
   30    13    65 1
   31    13    66 1
   32    14    67 1
   33    15    14 1
   34    15    16 1
   35    15    18 1
   36    15    68 1
   37    16    17 2
   38    16    21 am
   39    18    19 1
   40    18    20 1
   41    18    69 1
   42    19    70 1
   43    19    71 1
   44    19    72 1
   45    20    73 1
   46    20    74 1
   47    20    75 1
   48    21    76 1
   49    22    21 1
   50    22    23 1
   51    22    27 1
   52    22    77 1
   53    23    24 1
   54    23    78 1
   55    23    79 1
   56    24    25 1
   57    24    26 1
   58    24    80 1
   59    25    81 1
   60    25    82 1
   61    25    83 1
   62    26    84 1
   63    26    85 1
   64    26    86 1
   65    27    28 1
   66    27    29 1
   67    27    87 1
   68    28    88 1
   69    29    30 1
   70    29    89 1
   71    29    90 1
   72    30    31 2
   73    30    32 am
   74    32    33 1
   75    32    91 1
   76    33    34 1
   77    33    36 1
   78    33    92 1
   79    34    35 2
   80    34    37 am
   81    36    93 1
   82    36    94 1
   83    36    95 1
   84    37    96 1
   85    38    37 1
   86    38    39 1
   87    38    43 1
   88    38    97 1
   89    39    40 1
   90    39    98 1
   91    39    99 1
   92    40    41 1
   93    40    42 1
   94    40   100 1
   95    41   101 1
   96    41   102 1
   97    41   103 1
   98    42   104 1
   99    42   105 1
  100    42   106 1
  101    43    44 1
  102    43    45 1
  103    43   107 1
  104    44   108 1
  105    45    46 1
  106    45   109 1
  107    45   110 1
  108    46    47 ar
  109    46    48 ar
@<TRIPOS>SUBSTRUCTURE
1   ****   1
@<TRIPOS>MOLECULE
1lyl
25  24  1  0  0
SMALL
FORMAL_CHARGES
@<TRIPOS>ATOM
    1 N1         2.6241    -0.9627    -1.1663 N.4        1 ****  1
    2 C1         2.6572    -0.1265     0.0418 C.3        1 ****  0
    3 C2         1.4054     0.6945     0.1328 C.2        1 ****  0
    4 O1         0.3133     0.1882    -0.1586 O.2        1 ****  0
    5 C3         3.8923     0.7911     0.0209 C.3        1 ****  0
    6 C4         5.1618    -0.0769    -0.0233 C.3        1 ****  0
    7 C5         6.4076     0.8254    -0.0101 C.3        1 ****  0
    8 C6         7.6716    -0.0537    -0.0269 C.3        1 ****  0
    9 N2         8.8663     0.8017    -0.0035 N.4        1 ****  1
   10 H1         3.4782    -1.5372    -1.2036 H          1 ****  0
   11 H2         2.5867    -0.3553    -1.9972 H          1 ****  0
   12 H3         1.7955    -1.5743    -1.1463 H          1 ****  0
   13 H4         2.7192    -0.7807     0.9240 H          1 ****  0
   14 H5         1.4571     1.7442     0.4575 H          1 ****  0
   15 H6         3.8568     1.4354    -0.8700 H          1 ****  0
   16 H7         3.9047     1.4135     0.9277 H          1 ****  0
   17 H8         5.1600    -0.6838    -0.9408 H          1 ****  0
   18 H9         5.1822    -0.7410     0.8533 H          1 ****  0
   19 H10        6.4006     1.4744    -0.8982 H          1 ****  0
   20 H11        6.4042     1.4448     0.8989 H          1 ****  0
   21 H12        7.6739    -0.7095     0.8562 H          1 ****  0
   22 H13        7.6798    -0.6683    -0.9392 H          1 ****  0
   23 H14        8.8603     1.3770     0.8508 H          1 ****  0
   24 H15        8.8651     1.4162    -0.8302 H          1 ****  0
   25 H16        9.7117     0.2135    -0.0148 H          1 ****  0
@<TRIPOS>BOND
    1     1    10 1
    2     1    11 1
    3     1    12 1
    4     2     1 1
    5     2     3 1
    6     2     5 1
    7     2    13 1
    8     3     4 2
    9     3    14 1
   10     5     6 1
   11     5    15 1
   12     5    16 1
   13     6     7 1
   14     6    17 1
   15     6    18 1
   16     7     8 1
   17     7    19 1
   18     7    20 1
   19     8     9 1
   20     8    21 1
   21     8    22 1
   22     9    23 1
   23     9    24 1
   24     9    25 1
@<TRIPOS>SUBSTRUCTURE
1   ****   1
@<TRIPOS>MOLECULE
1mcq
40  41  1  0  0
SMALL
FORMAL_CHARGES
@<TRIPOS>ATOM
    1 C1         0.8931    -3.3730    -2.7898 C.2        1 ****  0
    2 O1         0.2094    -3.4901    -3.8125 O.2        1 ****  0
    3 C2         2.3580    -3.0234    -2.9370 C.3        1 ****  0
    4 N1         0.2653    -3.5778    -1.5192 N.am       1 ****  0
    5 C3         0.9291    -3.4459    -0.2217 C.3        1 ****  0
    6 C4         1.5201    -2.0718    -0.0266 C.2        1 ****  0
    7 O2         2.7370    -1.9467     0.1496 O.2        1 ****  0
    8 C5         1.9874    -4.5485    -0.0023 C.3        1 ****  0
    9 C6         1.3315    -5.8915    -0.1260 C.ar       1 ****  0
   10 N2         0.0364    -6.1038    -0.1156 N.ar       1 ****  0
   11 C7         2.0146    -7.0757    -0.2645 C.ar       1 ****  0
   12 C8        -0.1221    -7.4179    -0.2465 C.ar       1 ****  0
   13 N3         1.0706    -8.0060    -0.3365 N.ar       1 ****  0
   14 N4         0.6986    -0.9384    -0.0219 N.am       1 ****  0
   15 C9         0.2874     0.1671     0.6720 C.3        1 ****  0
   16 C10        1.4486     0.6109     1.6021 C.2        1 ****  0
   17 O3         0.5303     0.4175     2.4065 O.2        1 ****  0
   18 C11        0.0019     1.2210    -0.3150 C.3        1 ****  0
   19 C12       -1.1534     0.4117     0.2810 C.3        1 ****  0
   20 C13       -0.7363    -1.0242    -0.1039 C.3        1 ****  0
   21 N5         2.6971     1.0396     2.0568 N.am       1 ****  0
   22 H1         2.3894    -2.0783    -3.4988 H          1 ****  0
   23 H2         2.7949    -3.8084    -3.5718 H          1 ****  0
   24 H3         2.8750    -2.9431    -1.9694 H          1 ****  0
   25 H4        -0.7313    -3.8383    -1.5185 H          1 ****  0
   26 H5         0.1517    -3.5788     0.5451 H          1 ****  0
   27 H6         2.7783    -4.4550    -0.7611 H          1 ****  0
   28 H7         2.4247    -4.4450     1.0017 H          1 ****  0
   29 H8        -0.7066    -5.3963    -0.0245 H          1 ****  0
   30 H9         3.1042    -7.2208    -0.3065 H          1 ****  0
   31 H10       -1.0900    -7.9397    -0.2759 H          1 ****  0
   32 H11       -0.6447    -0.0562     1.2119 H          1 ****  0
   33 H12        0.0374     2.2254     0.1322 H          1 ****  0
   34 H13       -0.0690     1.2393    -1.4126 H          1 ****  0
   35 H14       -2.1031     0.6787    -0.2055 H          1 ****  0
   36 H15       -1.1780     0.5239     1.3750 H          1 ****  0
   37 H16       -1.1248    -1.7437     0.6319 H          1 ****  0
   38 H17       -1.0525    -1.2498    -1.1331 H          1 ****  0
   39 H18        3.4610     1.2048     1.3859 H          1 ****  0
   40 H19        2.8543     1.1907     3.0635 H          1 ****  0
@<TRIPOS>BOND
    1     1     2 2
    2     1     3 1
    3     1     4 am
    4     3    22 1
    5     3    23 1
    6     3    24 1
    7     4    25 1
    8     5     4 1
    9     5     6 1
   10     5     8 1
   11     5    26 1
   12     6     7 2
   13     6    14 am
   14     8     9 1
   15     8    27 1
   16     8    28 1
   17     9    10 ar
   18     9    11 ar
   19    10    12 ar
   20    10    29 1
   21    11    13 ar
   22    11    30 1
   23    12    13 ar
   24    12    31 1
   25    14    15 1
   26    14    20 1
   27    15    16 1
   28    15    18 1
   29    15    32 1
   30    16    17 2
   31    16    21 am
   32    18    19 1
   33    18    33 1
   34    18    34 1
   35    19    20 1
   36    19    35 1
   37    19    36 1
   38    20    37 1
   39    20    38 1
   40    21    39 1
   41    21    40 1
@<TRIPOS>SUBSTRUCTURE
1   ****   1
@<TRIPOS>MOLECULE
1mdr
21  21  1  0  0
SMALL
FORMAL_CHARGES
@<TRIPOS>ATOM
    1 C1         1.2084    -0.6974    -0.0001 C.ar       1 ****  0
    2 C2         0.0043    -1.3930    -0.0003 C.ar       1 ****  0
    3 C3        -1.1987    -0.6980    -0.0003 C.ar       1 ****  0
    4 C4        -1.1983     0.6923    -0.0001 C.ar       1 ****  0
    5 C5         0.0048     1.3871     0.0001 C.ar       1 ****  0
    6 C6         1.2089     0.6915     0.0001 C.ar       1 ****  0
    7 C7         2.5302    -1.4594    -0.0012 C.3        1 ****  0
    8 O1         2.5964    -2.2379     1.1950 O.3        1 ****  0
    9 C8         2.5271    -2.4318    -1.1953 C.3        1 ****  0
   10 C9         3.7968    -0.6054    -0.0868 C.2        1 ****  0.0000
   11 O2         4.8910    -1.1759    -0.1565 O.co2      1 ****  -0.50
   12 O3         3.7691     0.7521    -0.0727 O.co2      1 ****  -0.50
   13 H1         0.0042    -2.4930    -0.0005 H          1 ****  0
   14 H2        -2.1515    -1.2478    -0.0004 H          1 ****  0
   15 H3        -2.1508     1.2424    -0.0001 H          1 ****  0
   16 H4         0.0048     2.4871     0.0003 H          1 ****  0
   17 H5         2.1617     1.2413     0.0003 H          1 ****  0
   18 H6         1.8461    -2.8831     1.2234 H          1 ****  0
   19 H7         2.4281    -1.8721    -2.1371 H          1 ****  0
   20 H8         1.6952    -3.1449    -1.0987 H          1 ****  0
   21 H9         3.4762    -2.9878    -1.2069 H          1 ****  0
@<TRIPOS>BOND
    1     1     2 ar
    2     1     6 ar
    3     1     7 1
    4     2     3 ar
    5     2    13 1
    6     3     4 ar
    7     3    14 1
    8     4     5 ar
    9     4    15 1
   10     5     6 ar
   11     5    16 1
   12     6    17 1
   13     7     8 1
   14     7     9 1
   15     7    10 1
   16     8    18 1
   17     9    19 1
   18     9    20 1
   19     9    21 1
   20    10    11 ar
   21    10    12 ar
@<TRIPOS>SUBSTRUCTURE
1   ****   1
@<TRIPOS>MOLECULE
1mld
18  17  1  0  0
SMALL
FORMAL_CHARGES
@<TRIPOS>ATOM
    1 C1         1.4430     0.7493     0.0086 C.2        1 ****  0.0000
    2 O1         0.5304    -0.0566    -0.1898 O.co2      1 ****  -0.50
    3 O2         1.2980     2.0476    -0.3727 O.co2      1 ****  -0.50
    4 C2         2.6850     0.3206     0.7360 C.3        1 ****  0
    5 C3         3.8826    -0.8205     0.2372 C.3        1 ****  0
    6 O3         3.8441    -2.1972     0.6225 O.3        1 ****  0
    7 C4         5.1832     0.1923     0.6632 C.3        1 ****  0
    8 C5         6.4331     0.7071    -0.0060 C.2        1 ****  0.0000
    9 O4         7.4869     0.0729     0.0875 O.co2      1 ****  -0.50
   10 O5         6.4332     1.9259    -0.6107 O.co2      1 ****  -0.50
   11 C6         3.8438    -0.3166    -1.3722 C.2        1 ****  0.0000
   12 O6         3.7967    -1.5552    -1.2384 O.co2      1 ****  -0.50
   13 O7         3.8314     0.2230    -2.6129 O.co2      1 ****  -0.50
   14 H1         2.7841     0.9025     1.6642 H          1 ****  0
   15 H2         2.6131    -0.7485     0.9847 H          1 ****  0
   16 H3         4.0181     2.5049     0.2725 H          1 ****  0
   17 H4         5.2500    -0.9014     0.7599 H          1 ****  0
   18 H5         5.1057     0.6299     1.6694 H          1 ****  0
@<TRIPOS>BOND
    1     1     2 ar
    2     1     3 ar
    3     1     4 1
    4     4     5 1
    5     4    14 1
    6     4    15 1
    7     5     6 1
    8     5     7 1
    9     5    11 1
   10     6    16 1
   11     7     8 1
   12     7    17 1
   13     7    18 1
   14     8     9 ar
   15     8    10 ar
   16    11    12 ar
   17    11    13 ar
@<TRIPOS>SUBSTRUCTURE
1   ****   1
@<TRIPOS>MOLECULE
1mmq
68  70  1  0  0
SMALL
FORMAL_CHARGES
@<TRIPOS>ATOM
    1 C1         8.1117     4.4799     0.4991 C.2        1 ****  0
    2 O1         8.0028     5.2785     1.4377 O.2        1 ****  0
    3 N1         9.2986     4.4277    -0.2309 N.am       1 ****  0
    4 O2        10.3066     5.2251     0.0883 O.3        1 ****  -1
    5 C2         6.9540     3.5999     0.1111 C.3        1 ****  0
    6 C3         6.2557     2.4871     1.0101 C.3        1 ****  0
    7 C4         4.7011     2.7623     0.8371 C.2        1 ****  0
    8 O3         4.5386     2.4972    -0.3614 O.2        1 ****  0
    9 N2         3.7312     2.4123     1.8011 N.am       1 ****  0
   10 C5         2.4787     1.7689     1.4505 C.3        1 ****  0
   11 C6         2.7537     0.4180     0.8542 C.2        1 ****  0
   12 O4         3.6382     0.2777     0.0021 O.2        1 ****  0
   13 N3         1.9617    -0.6621     1.2414 N.am       1 ****  0
   14 C7         2.1279    -1.9683     0.6712 C.3        1 ****  0
   15 C8         0.7785    -2.6859     0.8195 C.3        1 ****  0
   16 C9        -0.2413    -1.8378     0.0646 C.3        1 ****  0
   17 C10       -1.6887    -2.2359     0.3758 C.3        1 ****  0
   18 C11       -2.6816    -1.3113    -0.4000 C.3        1 ****  0
   19 C12       -2.5844     0.1975     0.0346 C.3        1 ****  0
   20 N4        -1.3248     0.8401    -0.3277 N.ar       1 ****  0
   21 C13        6.5819     2.9251     2.5665 C.3        1 ****  0
   22 C14        7.3366     1.5701     2.3489 C.3        1 ****  0
   23 C15        6.3955     0.4116     1.9560 C.3        1 ****  0
   24 C16        8.0547     1.1869     3.6542 C.3        1 ****  0
   25 C17        1.7709     2.6403     0.4023 C.3        1 ****  0
   26 C18        0.5958     1.8930    -0.1433 C.ar       1 ****  0
   27 C19       -0.5627     1.5207     0.5390 C.ar       1 ****  0
   28 C20        0.4829     1.4181    -1.4309 C.ar       1 ****  0
   29 C21       -0.7272     0.7829    -1.5201 C.ar       1 ****  0
   30 C22        1.3691     1.5043    -2.4913 C.ar       1 ****  0
   31 C23       -1.1405     0.1925    -2.7032 C.ar       1 ****  0
   32 C24        0.9674     0.9127    -3.6863 C.ar       1 ****  0
   33 C25       -0.2706     0.2708    -3.7908 C.ar       1 ****  0
   34 H1         9.3912     3.7695    -1.0178 H          1 ****  0
   35 H2         6.4601     4.0190    -0.7779 H          1 ****  0
   36 H3         7.3254     2.5923    -0.1273 H          1 ****  0
   37 H4         6.5779     1.4669     0.7543 H          1 ****  0
   38 H5         3.9199     2.6218     2.7918 H          1 ****  0
   39 H6         1.8525     1.6496     2.3469 H          1 ****  0
   40 H7         1.2359    -0.5182     1.9579 H          1 ****  0
   41 H8         2.9054    -2.5212     1.2187 H          1 ****  0
   42 H9         2.3884    -1.8819    -0.3940 H          1 ****  0
   43 H10        0.8364    -3.6884     0.3706 H          1 ****  0
   44 H11        0.5005    -2.7465     1.8821 H          1 ****  0
   45 H12       -0.0661    -1.9428    -1.0163 H          1 ****  0
   46 H13       -0.0957    -0.7806     0.3314 H          1 ****  0
   47 H14       -1.8527    -3.2809     0.0742 H          1 ****  0
   48 H15       -1.8703    -2.1397     1.4565 H          1 ****  0
   49 H16       -3.7089    -1.6661    -0.2303 H          1 ****  0
   50 H17       -2.4728    -1.3867    -1.4774 H          1 ****  0
   51 H18       -2.7127     0.2642     1.1251 H          1 ****  0
   52 H19       -3.4109     0.7559    -0.4292 H          1 ****  0
   53 H20        5.7951     2.7752     3.3204 H          1 ****  0
   54 H21        7.2893     3.6637     2.9718 H          1 ****  0
   55 H22        8.0433     1.7224     1.5198 H          1 ****  0
   56 H23        5.8748     0.6979     1.0303 H          1 ****  0
   57 H24        5.6497     0.2953     2.7561 H          1 ****  0
   58 H25        6.9568    -0.5233     1.8111 H          1 ****  0
   59 H26        7.3195     1.0692     4.4639 H          1 ****  0
   60 H27        8.7794     1.9689     3.9248 H          1 ****  0
   61 H28        8.5873     0.2354     3.5085 H          1 ****  0
   62 H29        2.4689     2.8738    -0.4151 H          1 ****  0
   63 H30        1.4265     3.5735     0.8720 H          1 ****  0
   64 H31       -0.8044     1.7434     1.5888 H          1 ****  0
   65 H32        2.3394     2.0134    -2.3949 H          1 ****  0
   66 H33       -2.1127    -0.3161    -2.7816 H          1 ****  0
   67 H34        1.6336     0.9509    -4.5608 H          1 ****  0
   68 H35       -0.5641    -0.1814    -4.7497 H          1 ****  0
@<TRIPOS>BOND
    1     1     2 2
    2     1     3 am
    3     1     5 1
    4     3     4 1
    5     3    34 1
    6     5     6 1
    7     5    35 1
    8     5    36 1
    9     6     7 1
   10     6    21 1
   11     6    37 1
   12     7     8 2
   13     7     9 am
   14     9    38 1
   15    10     9 1
   16    10    11 1
   17    10    25 1
   18    10    39 1
   19    11    12 2
   20    11    13 am
   21    13    14 1
   22    13    40 1
   23    14    15 1
   24    14    41 1
   25    14    42 1
   26    15    16 1
   27    15    43 1
   28    15    44 1
   29    16    17 1
   30    16    45 1
   31    16    46 1
   32    17    18 1
   33    17    47 1
   34    17    48 1
   35    18    19 1
   36    18    49 1
   37    18    50 1
   38    19    20 1
   39    19    51 1
   40    19    52 1
   41    20    27 ar
   42    20    29 ar
   43    21    22 1
   44    21    53 1
   45    21    54 1
   46    22    23 1
   47    22    24 1
   48    22    55 1
   49    23    56 1
   50    23    57 1
   51    23    58 1
   52    24    59 1
   53    24    60 1
   54    24    61 1
   55    25    26 1
   56    25    62 1
   57    25    63 1
   58    26    27 ar
   59    26    28 ar
   60    27    64 1
   61    28    29 ar
   62    28    30 ar
   63    29    31 ar
   64    30    32 ar
   65    30    65 1
   66    31    33 ar
   67    31    66 1
   68    32    33 ar
   69    32    67 1
   70    33    68 1
@<TRIPOS>SUBSTRUCTURE
1   ****   1
@<TRIPOS>MOLECULE
1mrg
15  16  1  0  0
SMALL
FORMAL_CHARGES
@<TRIPOS>ATOM
    1 N1         2.3996     1.1202     0.0001 N.ar       1 ****  0
    2 C1         3.1723     0.0261    -0.0001 C.ar       1 ****  0
    3 N2         2.4246    -1.0848    -0.0003 N.ar       1 ****  0
    4 C2         1.1684    -0.6751    -0.0002 C.ar       1 ****  0
    5 C3        -0.0134    -1.3897    -0.0004 C.ar       1 ****  0
    6 N3        -0.0269    -2.8175    -0.0007 N.pl3      1 ****  0
    7 N4        -1.1400    -0.6808    -0.0002 N.ar       1 ****  0
    8 C4        -1.1214     0.6580     0.0000 C.ar       1 ****  0
    9 N5         0.0135     1.3611     0.0002 N.ar       1 ****  0
   10 C5         1.1509     0.6870     0.0001 C.ar       1 ****  0
   11 H1         4.2722     0.0385    -0.0001 H          1 ****  0
   12 H2         2.7598    -2.0587    -0.0006 H          1 ****  0
   13 H3         0.8711    -3.3220    -0.0008 H          1 ****  0
   14 H4        -0.9164    -3.3369    -0.0008 H          1 ****  0
   15 H5        -2.0787     1.1998     0.0002 H          1 ****  0
@<TRIPOS>BOND
    1     1     2 ar
    2     1    10 ar
    3     2     3 ar
    4     2    11 1
    5     3     4 ar
    6     3    12 1
    7     4     5 ar
    8     4    10 ar
    9     5     6 1
   10     5     7 ar
   11     6    13 1
   12     6    14 1
   13     7     8 ar
   14     8     9 ar
   15     8    15 1
   16     9    10 ar
@<TRIPOS>SUBSTRUCTURE
1   ****   1
@<TRIPOS>MOLECULE
1mrk
32  34  1  0  0
SMALL
FORMAL_CHARGES
@<TRIPOS>ATOM
    1 N1         1.3800    -0.6002     0.2669 N.ar       1 ****  0
    2 C1         0.2338    -1.2823     0.3755 C.ar       1 ****  0
    3 N2        -0.9594    -0.6872     0.3373 N.ar       1 ****  0
    4 C2        -0.9901     0.6247     0.1668 C.ar       1 ****  0
    5 C3         0.1566     1.3472     0.0726 C.ar       1 ****  0
    6 C4         1.3858     0.7230     0.1234 C.ar       1 ****  0
    7 N3         2.5993     1.4556     0.0058 N.pl3      1 ****  0
    8 N4        -0.1744     2.6191    -0.0856 N.ar       1 ****  0
    9 N5        -1.4450     2.7436    -0.1302 N.ar       1 ****  0
   10 C5        -2.0204     1.5427     0.0100 C.ar       1 ****  0
   11 C6        -3.5593     1.3412    -0.0148 C.3        1 ****  0
   12 C7        -4.1121     0.5832    -1.2731 C.3        1 ****  0
   13 O1        -5.5177     0.6396    -1.2764 O.3        1 ****  0
   14 C8        -3.5876    -0.7831    -0.9382 C.3        1 ****  0
   15 O2        -3.9735    -1.8839    -1.7540 O.3        1 ****  0
   16 C9        -4.7183    -0.2914     0.0664 C.3        1 ****  0
   17 O3        -3.9788     0.4739     1.0912 O.3        1 ****  0
   18 C10       -5.3777    -1.5844     0.8478 C.3        1 ****  0
   19 O4        -6.4707    -1.0008     0.1646 O.3        1 ****  0
   20 H1         0.2760    -2.3445     0.4976 H          1 ****  0
   21 H2         3.5011     0.9615     0.0287 H          1 ****  0
   22 H3         2.5722     2.4773    -0.1101 H          1 ****  0
   23 H4         0.4734     3.3699    -0.1511 H          1 ****  0
   24 H5        -4.0078     2.3434     0.0527 H          1 ****  0
   25 H6        -3.7393     0.9798    -2.2279 H          1 ****  0
   26 H7        -5.8055     1.5747    -1.4131 H          1 ****  0
   27 H8        -2.5418    -0.6696    -1.0099 H          1 ****  0
   28 H9        -3.6676    -1.7278    -2.6782 H          1 ****  0
   29 H10       -5.4583     0.3415    -0.4421 H          1 ****  0
   30 H11       -5.5829    -1.5546     1.9230 H          1 ****  0
   31 H12       -5.3280    -2.6487     0.5829 H          1 ****  0
   32 H13       -6.4234    -1.2549    -0.7922 H          1 ****  0
@<TRIPOS>BOND
    1     1     2 ar
    2     1     6 ar
    3     2     3 ar
    4     2    20 1
    5     3     4 ar
    6     4     5 ar
    7     4    10 ar
    8     5     6 ar
    9     5     8 ar
   10     6     7 1
   11     7    21 1
   12     7    22 1
   13     8     9 ar
   14     8    23 1
   15     9    10 ar
   16    10    11 1
   17    11    12 1
   18    11    17 1
   19    11    24 1
   20    12    13 1
   21    12    14 1
   22    12    25 1
   23    13    26 1
   24    14    15 1
   25    14    16 1
   26    14    27 1
   27    15    28 1
   28    16    17 1
   29    16    18 1
   30    16    29 1
   31    18    19 1
   32    18    30 1
   33    18    31 1
   34    19    32 1
@<TRIPOS>SUBSTRUCTURE
1   ****   1
@<TRIPOS>MOLECULE
1mts
65  68  1  0  0
SMALL
FORMAL_CHARGES
@<TRIPOS>ATOM
    1 C1         3.6726     3.5830     0.0004 C.ar       1 ****  0
    2 C2         3.6732     4.9725     0.0005 C.ar       1 ****  0
    3 C3         2.4700     5.6683     0.0005 C.ar       1 ****  0
    4 C4         1.2662     4.9749     0.0004 C.ar       1 ****  0
    5 C5         4.8773     5.6657     0.0007 C.ar       1 ****  0
    6 C6         4.8783     7.0553     0.0008 C.ar       1 ****  0
    7 C7         2.4709     7.0578     0.0006 C.ar       1 ****  0
    8 C8         3.6752     7.7510     0.0007 C.ar       1 ****  0
    9 C9         3.6777     9.2610     0.0053 C.3        1 ****  0
   10 C10        5.0647     9.8385     0.3846 C.3        1 ****  0
   11 C11        4.9991    11.3359     0.2828 C.ar       1 ****  0
   12 C12        3.8159    11.9624    -0.0889 C.ar       1 ****  0
   13 C13        3.7574    13.3491    -0.1611 C.ar       1 ****  0
   14 C14        4.8824    14.1081     0.1388 C.ar       1 ****  0
   15 C15        6.0658    13.4814     0.5106 C.ar       1 ****  0
   16 C16        6.1243    12.0949     0.5827 C.ar       1 ****  0
   17 C17        5.4106     9.4867     1.8059 C.2        1 ****  0.0000
   18 O1         4.6389     9.7937     2.7211 O.co2      1 ****  -0.50
   19 O2         6.5712     8.8395     2.0835 O.co2      1 ****  -0.50
   20 O3         4.8202    15.5401     0.0638 O.3        1 ****  0
   21 C18        3.5574    16.1759    -0.3318 C.3        1 ****  0
   22 C19        3.0761    15.8879    -1.7495 C.3        1 ****  0
   23 N1         0.9366    16.9378    -1.1329 N.2        1 ****  1
   24 C20        1.2656    16.9857     0.2743 C.3        1 ****  0
   25 C21        2.3814    15.9817     0.6189 C.3        1 ****  0
   26 C22       -0.2708    17.1026    -1.4987 C.2        1 ****  0
   27 N2        -0.5920    17.1524    -2.8929 N.3        1 ****  0
   28 C23       -1.3633    17.2469    -0.4746 C.3        1 ****  0
   29 C24        1.9817    16.8993    -2.1312 C.3        1 ****  0
   30 N3        -1.1027     3.4897     0.0001 N.2        1 ****  1
   31 C25       -0.0025     2.8538     0.0001 C.2        1 ****  0
   32 N4        -0.0037     1.4572     0.0000 N.3        1 ****  0
   33 C26        1.2657     3.5852     0.0003 C.ar       1 ****  0
   34 C27        2.4687     2.8893     0.0003 C.ar       1 ****  0
   35 H1         4.6249     3.0324     0.0005 H          1 ****  0
   36 H2         0.3139     5.5255     0.0003 H          1 ****  0
   37 H3         5.8293     5.1147     0.0007 H          1 ****  0
   38 H4         5.8313     7.6046     0.0009 H          1 ****  0
   39 H5         1.5188     7.6087     0.0006 H          1 ****  0
   40 H6         2.9289     9.6209     0.7263 H          1 ****  0
   41 H7         3.3977     9.6244    -0.9944 H          1 ****  0
   42 H8         5.8240     9.4204    -0.2927 H          1 ****  0
   43 H9         2.9258    11.3611    -0.3260 H          1 ****  0
   44 H10        2.8210    13.8457    -0.4553 H          1 ****  0
   45 H11        6.9558    14.0827     0.7478 H          1 ****  0
   46 H12        7.0606    11.5982     0.8771 H          1 ****  0
   47 H13        3.8758    17.2276    -0.2800 H          1 ****  0
   48 H14        3.9198    15.9794    -2.4493 H          1 ****  0
   49 H15        2.6659    14.8684    -1.7990 H          1 ****  0
   50 H16        0.3688    16.7470     0.8650 H          1 ****  0
   51 H17        1.5993    18.0013     0.5337 H          1 ****  0
   52 H18        2.7148    16.1469     1.6540 H          1 ****  0
   53 H19        1.9948    14.9568     0.5188 H          1 ****  0
   54 H20        0.1521    17.0550    -3.5984 H          1 ****  0
   55 H21       -1.5689    17.2857    -3.1906 H          1 ****  0
   56 H22       -1.0594    18.0982     0.1523 H          1 ****  0
   57 H23       -1.2974    16.3411     0.1460 H          1 ****  0
   58 H24       -2.3628    17.3838    -0.9130 H          1 ****  0
   59 H25        1.5453    16.6151    -3.1001 H          1 ****  0
   60 H26        2.4289    17.9000    -2.2248 H          1 ****  0
   61 H27       -1.1026     4.5197     0.0002 H          1 ****  0
   62 H28       -1.9948     2.9749    -0.0000 H          1 ****  0
   63 H29       -0.8960     0.9427    -0.0001 H          1 ****  0
   64 H30        0.8880     0.9416     0.0000 H          1 ****  0
   65 H31        2.4678     1.7893     0.0002 H          1 ****  0
@<TRIPOS>BOND
    1     1     2 ar
    2     1    34 ar
    3     1    35 1
    4     2     3 ar
    5     2     5 ar
    6     3     4 ar
    7     3     7 ar
    8     4    33 ar
    9     4    36 1
   10     5     6 ar
   11     5    37 1
   12     6     8 ar
   13     6    38 1
   14     7     8 ar
   15     7    39 1
   16     8     9 1
   17     9    10 1
   18     9    40 1
   19     9    41 1
   20    10    11 1
   21    10    17 1
   22    10    42 1
   23    11    12 ar
   24    11    16 ar
   25    12    13 ar
   26    12    43 1
   27    13    14 ar
   28    13    44 1
   29    14    15 ar
   30    14    20 1
   31    15    16 ar
   32    15    45 1
   33    16    46 1
   34    17    18 ar
   35    17    19 ar
   36    20    21 1
   37    21    22 1
   38    21    25 1
   39    21    47 1
   40    22    29 1
   41    22    48 1
   42    22    49 1
   43    23    24 1
   44    23    26 2
   45    23    29 1
   46    24    25 1
   47    24    50 1
   48    24    51 1
   49    25    52 1
   50    25    53 1
   51    26    27 1
   52    26    28 1
   53    27    54 1
   54    27    55 1
   55    28    56 1
   56    28    57 1
   57    28    58 1
   58    29    59 1
   59    29    60 1
   60    30    31 2
   61    30    61 1
   62    30    62 1
   63    31    32 1
   64    31    33 1
   65    32    63 1
   66    32    64 1
   67    33    34 ar
   68    34    65 1
@<TRIPOS>SUBSTRUCTURE
1   ****   1
@<TRIPOS>MOLECULE
1mup
22  22  1  0  0
SMALL
FORMAL_CHARGES
@<TRIPOS>ATOM
    1 S1         0.8155    -1.2147    -0.0009 S.3        1 ****  0
    2 C1        -0.8803    -0.9183    -0.0003 C.2        1 ****  0
    3 N1        -1.1922     0.3131    -0.0001 N.2        1 ****  0
    4 C2        -0.0732     1.2847    -0.0007 C.3        1 ****  0
    5 C3         1.2996     0.5028     0.0012 C.3        1 ****  0
    6 C4        -1.3536    -2.0163     0.9555 C.3        1 ****  0
    7 C5        -2.8948    -1.7876     1.1525 C.3        1 ****  0
    8 C6        -3.9531    -2.9067     1.1523 C.3        1 ****  0
    9 C7        -1.1928    -3.3735     0.1749 C.3        1 ****  0
   10 H1        -0.1351     1.9180     0.8965 H          1 ****  0
   11 H2        -0.1346     1.9148    -0.9003 H          1 ****  0
   12 H3         1.8703     0.7333    -0.9105 H          1 ****  0
   13 H4         1.8667     0.7311     0.9158 H          1 ****  0
   14 H5        -0.8095    -2.0174     1.9115 H          1 ****  0
   15 H6        -3.3916    -0.8149     1.0217 H          1 ****  0
   16 H7        -2.3547    -1.7954     2.1107 H          1 ****  0
   17 H8        -3.4568    -3.8795     1.2841 H          1 ****  0
   18 H9        -4.4933    -2.8992     0.1942 H          1 ****  0
   19 H10       -4.6639    -2.7429     1.9757 H          1 ****  0
   20 H11       -0.6454    -3.3821     1.1290 H          1 ****  0
   21 H12       -0.4860    -3.5296    -0.6534 H          1 ****  0
   22 H13       -1.9413    -4.1796     0.1747 H          1 ****  0
@<TRIPOS>BOND
    1     1     2 1
    2     1     5 1
    3     2     3 2
    4     2     6 1
    5     3     4 1
    6     4     5 1
    7     4    10 1
    8     4    11 1
    9     5    12 1
   10     5    13 1
   11     6     7 1
   12     6     9 1
   13     6    14 1
   14     7     8 1
   15     7    15 1
   16     7    16 1
   17     8    17 1
   18     8    18 1
   19     8    19 1
   20     9    20 1
   21     9    21 1
   22     9    22 1
@<TRIPOS>SUBSTRUCTURE
1   ****   1
@<TRIPOS>MOLECULE
1nco
82  88  1  0  0
SMALL
FORMAL_CHARGES
@<TRIPOS>ATOM
    1 C1         1.9687     0.5319    -0.5773 C.2        1 ****  0
    2 C2         1.1547    -0.6092    -0.5217 C.1        1 ****  0
    3 C3         0.2722    -1.4245    -0.4435 C.1        1 ****  0
    4 C4        -0.8757    -2.2716    -0.1650 C.3        1 ****  0
    5 O1        -1.9123    -2.3022    -1.1698 O.3        1 ****  0
    6 C5        -2.0554    -1.3010    -0.0834 C.3        1 ****  0
    7 C6        -1.4193     0.0364    -0.1531 C.1        1 ****  0
    8 C7        -0.8092     1.0754    -0.2603 C.1        1 ****  0
    9 C8         0.0901     2.1856    -0.2761 C.2        1 ****  0
   10 C9         1.4047     1.9056    -0.4054 C.2        1 ****  0
   11 C10        2.4911     2.8887    -0.1830 C.3        1 ****  0
   12 O2         2.4132     3.5716     1.2165 O.3        1 ****  0
   13 C11        3.7752     1.9929    -0.4218 C.3        1 ****  0
   14 O3         4.5896     2.3095    -1.4661 O.3        1 ****  0
   15 C12        3.2864     0.5404    -0.5428 C.2        1 ****  0
   16 C13        2.4180     2.9846     2.7047 C.3        1 ****  0
   17 O4         1.3095     2.0788     3.0541 O.3        1 ****  0
   18 C14        3.7450     2.3322     3.3013 C.3        1 ****  0
   19 N1         4.9190     3.3006     3.2537 N.4        1 ****  1
   20 C15        5.3066     3.8122     1.9429 C.3        1 ****  0
   21 C16        3.9773     0.9349     2.6762 C.3        1 ****  0
   22 O5         5.1451     0.3062     3.1806 O.3        1 ****  0
   23 C17        2.7392     0.0529     2.9818 C.3        1 ****  0
   24 O6         2.6450    -0.2007     4.3712 O.3        1 ****  0
   25 C18        1.4491     0.7562     2.5297 C.3        1 ****  0
   26 C19        0.2359    -0.0985     2.9211 C.3        1 ****  0
   27 C20        4.0577     2.1291    -2.6401 C.2        1 ****  0
   28 O7         2.8674     1.8213    -2.7353 O.2        1 ****  0
   29 C21        4.9085     2.2906    -3.8137 C.ar       1 ****  0
   30 C22        6.2744     2.6093    -3.7238 C.ar       1 ****  0
   31 O8         7.0346     2.6995    -2.5084 O.3        1 ****  0
   32 C23        6.9961     2.8060    -4.8931 C.ar       1 ****  0
   33 C24        6.3955     2.6644    -6.1351 C.ar       1 ****  0
   34 C25        5.0618     2.2945    -6.2186 C.ar       1 ****  0
   35 C26        4.3245     2.1100    -5.0629 C.ar       1 ****  0
   36 C27        2.9925     1.7359    -5.1659 C.ar       1 ****  0
   37 C28        2.3851     1.5374    -6.3906 C.ar       1 ****  0
   38 O9         1.0464     1.1314    -6.4402 O.3        1 ****  0
   39 C29        0.5264     0.9760    -5.1029 C.3        1 ****  0
   40 C30        3.1219     1.7423    -7.5486 C.ar       1 ****  0
   41 C31        4.4572     2.1247    -7.4579 C.ar       1 ****  0
   42 C32        5.2532     2.3501    -8.7009 C.3        1 ****  0
   43 C33       -0.7888    -3.3454     0.9729 C.3        1 ****  0
   44 O10        0.0172    -4.4246     0.4916 O.3        1 ****  0
   45 C34       -0.9414    -5.2021    -0.1686 C.2        1 ****  0
   46 O11       -0.6338    -6.1359    -0.9171 O.2        1 ****  0
   47 O12       -2.2779    -4.8916     0.1119 O.3        1 ****  0
   48 C35       -2.1495    -3.9801     1.2076 C.3        1 ****  0
   49 H1        -2.7658    -1.5334     0.7168 H          1 ****  0
   50 H2        -0.2619     3.1924    -0.1896 H          1 ****  0
   51 H3         2.4483     3.6746    -0.9555 H          1 ****  0
   52 H4         4.4035     2.1003     0.3915 H          1 ****  0
   53 H5         3.9146    -0.3244    -0.5912 H          1 ****  0
   54 H6         2.2587     3.8820     3.3159 H          1 ****  0
   55 H7         3.5752     2.1436     4.3610 H          1 ****  0
   56 H8         5.7353     2.8441     3.6750 H          1 ****  0
   57 H9         4.6658     4.1157     3.8258 H          1 ****  0
   58 H10        4.4103     4.2746     1.5351 H          1 ****  0
   59 H11        5.5094     2.9323     1.3362 H          1 ****  0
   60 H12        6.0916     4.4491     1.9830 H          1 ****  0
   61 H13        4.0807     1.0189     1.6903 H          1 ****  0
   62 H14        5.0557     0.1753     4.1439 H          1 ****  0
   63 H15        2.8381    -0.9133     2.4554 H          1 ****  0
   64 H16        2.5011     0.6290     4.8536 H          1 ****  0
   65 H17        1.4695     0.8402     1.5444 H          1 ****  0
   66 H18       -0.6529     0.3506     2.5273 H          1 ****  0
   67 H19        0.1658    -0.1424     3.9887 H          1 ****  0
   68 H20        0.3462    -1.0845     2.5266 H          1 ****  0
   69 H21        6.5391     2.5033    -1.7127 H          1 ****  0
   70 H22        8.0312     3.0707    -4.8353 H          1 ****  0
   71 H23        6.9601     2.8403    -7.0268 H          1 ****  0
   72 H24        2.4202     1.5973    -4.2725 H          1 ****  0
   73 H25        0.5975     1.9108    -4.5858 H          1 ****  0
   74 H26        1.1043     0.2397    -4.5830 H          1 ****  0
   75 H27       -0.4953     0.6661    -5.1465 H          1 ****  0
   76 H28        2.6656     1.6068    -8.5069 H          1 ****  0
   77 H29        6.1119     1.6852    -8.6002 H          1 ****  0
   78 H30        5.6376     3.3658    -8.5991 H          1 ****  0
   79 H31        4.7316     2.2035    -9.5404 H          1 ****  0
   80 H32       -0.3775    -2.8827     1.8829 H          1 ****  0
   81 H33       -2.8961    -3.2508     1.1558 H          1 ****  0
   82 H34       -2.1453    -4.5063     2.1138 H          1 ****  0
@<TRIPOS>BOND
    1     1     2 1
    2     1    10 1
    3     1    15 2
    4     2     3 3
    5     3     4 1
    6     4     5 1
    7     4     6 1
    8     4    43 1
    9     6     5 1
   10     6     7 1
   11     6    49 1
   12     7     8 3
   13     8     9 1
   14     9    10 2
   15     9    50 1
   16    10    11 1
   17    11    12 1
   18    11    13 1
   19    11    51 1
   20    13    14 1
   21    13    15 1
   22    13    52 1
   23    14    27 1
   24    15    53 1
   25    16    12 1
   26    16    17 1
   27    16    18 1
   28    16    54 1
   29    17    25 1
   30    18    19 1
   31    18    21 1
   32    18    55 1
   33    19    20 1
   34    19    56 1
   35    19    57 1
   36    20    58 1
   37    20    59 1
   38    20    60 1
   39    21    22 1
   40    21    23 1
   41    21    61 1
   42    22    62 1
   43    23    24 1
   44    23    25 1
   45    23    63 1
   46    24    64 1
   47    25    26 1
   48    25    65 1
   49    26    66 1
   50    26    67 1
   51    26    68 1
   52    27    28 2
   53    27    29 1
   54    29    30 ar
   55    29    35 ar
   56    30    31 1
   57    30    32 ar
   58    31    69 1
   59    32    33 ar
   60    32    70 1
   61    33    34 ar
   62    33    71 1
   63    34    35 ar
   64    34    41 ar
   65    35    36 ar
   66    36    37 ar
   67    36    72 1
   68    37    38 1
   69    37    40 ar
   70    38    39 1
   71    39    73 1
   72    39    74 1
   73    39    75 1
   74    40    41 ar
   75    40    76 1
   76    41    42 1
   77    42    77 1
   78    42    78 1
   79    42    79 1
   80    43    44 1
   81    43    48 1
   82    43    80 1
   83    44    45 1
   84    45    46 2
   85    45    47 1
   86    47    48 1
   87    48    81 1
   88    48    82 1
@<TRIPOS>SUBSTRUCTURE
1   ****   1
@<TRIPOS>MOLECULE
1ngp
20  20  1  0  0
SMALL
FORMAL_CHARGES
@<TRIPOS>ATOM
    1 C1         1.1927    -0.6787    -0.0001 C.ar       1 ****  0
    2 C2         1.1943     0.7111     0.0000 C.ar       1 ****  0
    3 C3        -0.0088     1.4069    -0.0000 C.ar       1 ****  0
    4 C4        -1.2130     0.7131    -0.0001 C.ar       1 ****  0
    5 C5        -1.2145    -0.6766    -0.0002 C.ar       1 ****  0
    6 C6        -0.0115    -1.3725    -0.0002 C.ar       1 ****  0
    7 C7         2.5139    -1.4413    -0.0000 C.3        1 ****  0
    8 C8         3.7917    -0.5993    -0.0006 C.2        1 ****  0.0000
    9 N1        -0.0074     2.8037     0.0001 N.pl3      1 ****  0.0000
   10 O1        -1.1259     3.4497     0.0001 O.2        1 ****  0.0000
   11 O2         1.0110     3.3915     0.0002 O.2        1 ****  0.0000
   12 O3        -2.4149     1.4085    -0.0001 O.3        1 ****  0
   13 O4         4.8844    -1.1775    -0.0008 O.co2      1 ****  -0.50
   14 O5         3.7714     0.7590    -0.0008 O.co2      1 ****  -0.50
   15 H1         2.1474     1.2602     0.0001 H          1 ****  0
   16 H2        -2.1676    -1.2257    -0.0003 H          1 ****  0
   17 H3        -0.0124    -2.4725    -0.0003 H          1 ****  0
   18 H4         2.5338    -2.1005     0.8803 H          1 ****  0
   19 H5         2.5342    -2.1018    -0.8794 H          1 ****  0
   20 H6        -2.3704     1.9952    -0.7963 H          1 ****  0
@<TRIPOS>BOND
    1     1     2 ar
    2     1     6 ar
    3     1     7 1
    4     2     3 ar
    5     2    15 1
    6     3     4 ar
    7     3     9 1
    8     4     5 ar
    9     4    12 1
   10     5     6 ar
   11     5    16 1
   12     6    17 1
   13     7     8 1
   14     7    18 1
   15     7    19 1
   16     8    13 ar
   17     8    14 ar
   18     9    10 2
   19     9    11 2
   20    12    20 1
@<TRIPOS>SUBSTRUCTURE
1   ****   1
@<TRIPOS>MOLECULE
1nis
18  17  1  0  0
SMALL
FORMAL_CHARGES
@<TRIPOS>ATOM
    1 N1         1.4268     0.5664    -0.0002 N.pl3      1 ****  0.0000
    2 O1         1.4729     1.4586    -0.9341 O.2        1 ****  0.0000
    3 O2         0.4026     0.0545     0.2672 O.2        1 ****  0.0000
    4 C1         2.6180     0.1987     0.7201 C.3        1 ****  0
    5 C2         3.8623    -0.8055     0.1244 C.3        1 ****  0
    6 O3         3.8495    -2.2227     0.3194 O.3        1 ****  0
    7 C3         5.1248     0.1887     0.7262 C.3        1 ****  0
    8 C4         6.3776     0.5898    -0.0073 C.2        1 ****  0.0000
    9 O4         7.4830     0.2908     0.4584 O.co2      1 ****  -0.50
   10 O5         6.3027     1.2886    -1.1706 O.co2      1 ****  -0.50
   11 C5         3.8679    -0.0916    -1.3964 C.2        1 ****  0.0000
   12 O6         3.8509    -1.3252    -1.4398 O.co2      1 ****  -0.50
   13 O7         3.8745     0.6303    -2.5460 O.co2      1 ****  -0.50
   14 H1         2.6217     0.7020     1.6982 H          1 ****  0
   15 H2         2.6282    -0.8900     0.8768 H          1 ****  0
   16 H3         3.8895     2.4799     0.6155 H          1 ****  0
   17 H4         5.1182    -0.9026     0.8640 H          1 ****  0
   18 H5         5.1098     0.6749     1.7127 H          1 ****  0
@<TRIPOS>BOND
    1     1     2 2
    2     1     3 2
    3     1     4 1
    4     4     5 1
    5     4    14 1
    6     4    15 1
    7     5     6 1
    8     5     7 1
    9     5    11 1
   10     6    16 1
   11     7     8 1
   12     7    17 1
   13     7    18 1
   14     8     9 ar
   15     8    10 ar
   16    11    12 ar
   17    11    13 ar
@<TRIPOS>SUBSTRUCTURE
1   ****   1
@<TRIPOS>MOLECULE
1okl
30  31  1  0  0
SMALL
FORMAL_CHARGES
@<TRIPOS>ATOM
    1 C1         1.1784    -0.6781    -0.0001 C.ar       1 ****  0
    2 C2         1.1757     0.7116     0.0000 C.ar       1 ****  0
    3 C3        -0.0295     1.4037     0.0001 C.ar       1 ****  0
    4 C4        -1.2316     0.7063    -0.0000 C.ar       1 ****  0
    5 C5        -1.2279    -0.6831    -0.0002 C.ar       1 ****  0
    6 C6        -2.4292    -1.3810    -0.0003 C.ar       1 ****  0
    7 C7        -2.4253    -2.7706    -0.0005 C.ar       1 ****  0
    8 C8        -1.2200    -3.4624    -0.0005 C.ar       1 ****  0
    9 C9        -0.0185    -2.7644    -0.0004 C.ar       1 ****  0
   10 C10       -0.0232    -1.3750    -0.0002 C.ar       1 ****  0
   11 N1        -3.6721    -0.6668    -0.0003 N.pl3      1 ****  0
   12 C11       -4.9441    -1.4049    -0.0004 C.3        1 ****  0
   13 C12       -3.6810     0.8048    -0.0011 C.3        1 ****  0
   14 S1         2.7068    -1.5602     0.0005 S.O2       1 ****  0
   15 O1         3.8607    -0.5806     0.0999 O.2        1 ****  0
   16 O2         2.7408    -2.5113     1.1818 O.2        1 ****  0
   17 N2         2.8376    -2.4544    -1.4444 N.am       1 ****  -1
   18 H1         2.1271     1.2636     0.0001 H          1 ****  0
   19 H2        -0.0319     2.5037     0.0002 H          1 ****  0
   20 H3        -2.1856     1.2541    -0.0000 H          1 ****  0
   21 H4        -3.3765    -3.3232    -0.0006 H          1 ****  0
   22 H5        -1.2171    -4.5624    -0.0006 H          1 ****  0
   23 H6         0.9358    -3.3115    -0.0004 H          1 ****  0
   24 H7        -4.8933    -2.0571     0.8839 H          1 ****  0
   25 H8        -4.8932    -2.0569    -0.8849 H          1 ****  0
   26 H9        -5.8376    -0.7633    -0.0004 H          1 ****  0
   27 H10       -3.0920     1.0892    -0.8855 H          1 ****  0
   28 H11       -3.0914     1.0902     0.8826 H          1 ****  0
   29 H12       -4.6863     1.2514    -0.0010 H          1 ****  0
   30 H13        2.2477    -3.2860    -1.5905 H          1 ****  0
@<TRIPOS>BOND
    1     1     2 ar
    2     1    10 ar
    3     1    14 1
    4     2     3 ar
    5     2    18 1
    6     3     4 ar
    7     3    19 1
    8     4     5 ar
    9     4    20 1
   10     5     6 ar
   11     5    10 ar
   12     6     7 ar
   13     6    11 1
   14     7     8 ar
   15     7    21 1
   16     8     9 ar
   17     8    22 1
   18     9    10 ar
   19     9    23 1
   20    11    12 1
   21    11    13 1
   22    12    24 1
   23    12    25 1
   24    12    26 1
   25    13    27 1
   26    13    28 1
   27    13    29 1
   28    14    15 2
   29    14    16 2
   30    14    17 1
   31    17    30 1
@<TRIPOS>SUBSTRUCTURE
1   ****   1
@<TRIPOS>MOLECULE
1okm
35  35  1  0  0
SMALL
FORMAL_CHARGES
@<TRIPOS>ATOM
    1 C1         1.2308    -0.7111    -0.0001 C.ar       1 ****  0
    2 C2         1.2316     0.6787     0.0001 C.ar       1 ****  0
    3 C3         0.0284     1.3737     0.0001 C.ar       1 ****  0
    4 C4        -1.1750     0.6784    -0.0001 C.ar       1 ****  0
    5 C5        -1.1759    -0.7115    -0.0003 C.ar       1 ****  0
    6 C6         0.0275    -1.4066    -0.0003 C.ar       1 ****  0
    7 C7         2.4980    -1.4421    -0.0001 C.2        1 ****  0
    8 O1         2.4931    -2.6782    -0.0002 O.2        1 ****  0
    9 N1         3.7142    -0.7530     0.0001 N.am       1 ****  0
   10 C8         4.9440    -1.4959     0.0002 C.3        1 ****  0
   11 C9         6.1506    -0.5373     0.0002 C.3        1 ****  0
   12 C10        7.4513    -1.3673     0.0004 C.3        1 ****  0
   13 C11        8.6738    -0.4299     0.0004 C.3        1 ****  0
   14 N2         9.9068    -1.2331     0.0007 N.4        1 ****  1
   15 S1        -2.7030     1.5615    -0.0008 S.O2       1 ****  0
   16 O2        -2.4311     3.0505    -0.0999 O.2        1 ****  0
   17 O3        -3.5435     1.1158    -1.1824 O.2        1 ****  0
   18 N3        -3.5431     1.2276     1.4438 N.am       1 ****  -1
   19 H1         2.1845     1.2283     0.0003 H          1 ****  0
   20 H2         0.0283     2.4737     0.0003 H          1 ****  0
   21 H3        -2.1287    -1.2611    -0.0004 H          1 ****  0
   22 H4         0.0276    -2.5066    -0.0004 H          1 ****  0
   23 H5         3.7286     0.2769     0.0002 H          1 ****  0
   24 H6         4.9848    -2.1325     0.8964 H          1 ****  0
   25 H7         4.9857    -2.1332    -0.8954 H          1 ****  0
   26 H8         6.1184     0.0948    -0.8994 H          1 ****  0
   27 H9         6.1189     0.0956     0.8993 H          1 ****  0
   28 H10        7.4791    -2.0032     0.8976 H          1 ****  0
   29 H11        7.4800    -2.0040    -0.8962 H          1 ****  0
   30 H12        8.6504     0.2050     0.8984 H          1 ****  0
   31 H13        8.6499     0.2042    -0.8981 H          1 ****  0
   32 H14        9.9309    -1.8275    -0.8402 H          1 ****  0
   33 H15        9.9307    -1.8274     0.8416 H          1 ****  0
   34 H16       10.7247    -0.6071     0.0007 H          1 ****  0
   35 H17       -3.6234     0.2575     1.7805 H          1 ****  0
@<TRIPOS>BOND
    1     1     2 ar
    2     1     6 ar
    3     1     7 1
    4     2     3 ar
    5     2    19 1
    6     3     4 ar
    7     3    20 1
    8     4     5 ar
    9     4    15 1
   10     5     6 ar
   11     5    21 1
   12     6    22 1
   13     7     8 2
   14     7     9 am
   15     9    10 1
   16     9    23 1
   17    10    11 1
   18    10    24 1
   19    10    25 1
   20    11    12 1
   21    11    26 1
   22    11    27 1
   23    12    13 1
   24    12    28 1
   25    12    29 1
   26    13    14 1
   27    13    30 1
   28    13    31 1
   29    14    32 1
   30    14    33 1
   31    14    34 1
   32    15    16 2
   33    15    17 2
   34    15    18 1
   35    18    35 1
@<TRIPOS>SUBSTRUCTURE
1   ****   1
@<TRIPOS>MOLECULE
1pbd
16  16  1  0  0
SMALL
FORMAL_CHARGES
@<TRIPOS>ATOM
    1 C1         2.4641    -1.4235    -0.0001 C.2        1 ****  0.0000
    2 O1         3.5352    -0.8059     0.0001 O.co2      1 ****  -0.50
    3 O2         2.4640    -2.7821    -0.0002 O.co2      1 ****  -0.50
    4 C2         1.1961    -0.6908    -0.0001 C.ar       1 ****  0
    5 C3        -0.0073    -1.3859    -0.0003 C.ar       1 ****  0
    6 C4        -1.2107    -0.6909    -0.0003 C.ar       1 ****  0
    7 C5        -1.2101     0.6988    -0.0001 C.ar       1 ****  0
    8 C6        -0.0065     1.3941     0.0001 C.ar       1 ****  0
    9 C7         1.1969     0.6991     0.0001 C.ar       1 ****  0
   10 N1        -2.4472     1.4127    -0.0001 N.pl3      1 ****  0
   11 H1        -0.0072    -2.4859    -0.0004 H          1 ****  0
   12 H2        -2.1635    -1.2407    -0.0004 H          1 ****  0
   13 H3        -0.0066     2.4941     0.0003 H          1 ****  0
   14 H4         2.1497     1.2488     0.0003 H          1 ****  0
   15 H5        -3.3393     0.8980    -0.0002 H          1 ****  0
   16 H6        -2.4471     2.4427     0.0001 H          1 ****  0
@<TRIPOS>BOND
    1     1     2 ar
    2     1     3 ar
    3     1     4 1
    4     4     5 ar
    5     4     9 ar
    6     5     6 ar
    7     5    11 1
    8     6     7 ar
    9     6    12 1
   10     7     8 ar
   11     7    10 1
   12     8     9 ar
   13     8    13 1
   14     9    14 1
   15    10    15 1
   16    10    16 1
@<TRIPOS>SUBSTRUCTURE
1   ****   1
@<TRIPOS>MOLECULE
1pdz
12  11  1  0  0
SMALL
FORMAL_CHARGES
@<TRIPOS>ATOM
    1 P1         1.3972     0.7339     0.0284 P.3        1 ****  0
    2 O1         2.7116    -0.0827    -0.0272 O.3        1 ****  0
    3 O2         1.3473     1.6899    -1.1479 O.2        1 ****  -1
    4 O3         1.3492     1.5225     1.3229 O.2        1 ****  -1
    5 O4         0.3175    -0.1244    -0.0288 O.2        1 ****  0
    6 C1         3.8241     0.8126     0.0210 C.3        1 ****  0
    7 C2         5.1014     0.0262     0.0008 C.2        1 ****  0
    8 O5         5.0625    -1.3639    -0.0273 O.3        1 ****  0
    9 O6         6.1893     0.6144     0.0117 O.2        1 ****  0
   10 H1         3.7932     1.4832    -0.8504 H          1 ****  0
   11 H2         3.7763     1.4091     0.9441 H          1 ****  0
   12 H3         4.5189    -1.5840    -0.8249 H          1 ****  0
@<TRIPOS>BOND
    1     1     2 1
    2     1     3 1
    3     1     4 1
    4     1     5 2
    5     2     6 1
    6     6     7 1
    7     6    10 1
    8     6    11 1
    9     7     8 1
   10     7     9 2
   11     8    12 1
@<TRIPOS>SUBSTRUCTURE
1   ****   1
@<TRIPOS>MOLECULE
1phd
19  20  1  0  0
SMALL
FORMAL_CHARGES
@<TRIPOS>ATOM
    1 N1         3.6665    -0.8757     0.0001 N.ar       1 ****  0
    2 C1         4.5403    -1.8785     0.0001 C.ar       1 ****  0
    3 N2         3.8880    -3.0408    -0.0001 N.ar       1 ****  0
    4 C2         2.5826    -2.8006    -0.0002 C.ar       1 ****  0
    5 C3         2.4766    -1.4306    -0.0001 C.ar       1 ****  0
    6 C4         1.2084    -0.6974    -0.0001 C.ar       1 ****  0
    7 C5         1.2089     0.6915     0.0001 C.ar       1 ****  0
    8 C6         0.0048     1.3871     0.0001 C.ar       1 ****  0
    9 C7        -1.1983     0.6923    -0.0001 C.ar       1 ****  0
   10 C8        -1.1987    -0.6980    -0.0003 C.ar       1 ****  0
   11 C9         0.0043    -1.3930    -0.0003 C.ar       1 ****  0
   12 H1         5.6345    -1.7657     0.0002 H          1 ****  0
   13 H2         4.3255    -3.9733    -0.0002 H          1 ****  0
   14 H3         1.7651    -3.5366    -0.0004 H          1 ****  0
   15 H4         2.1617     1.2413     0.0003 H          1 ****  0
   16 H5         0.0048     2.4871     0.0003 H          1 ****  0
   17 H6        -2.1508     1.2424    -0.0001 H          1 ****  0
   18 H7        -2.1515    -1.2478    -0.0004 H          1 ****  0
   19 H8         0.0042    -2.4930    -0.0004 H          1 ****  0
@<TRIPOS>BOND
    1     1     2 ar
    2     1     5 ar
    3     2     3 ar
    4     2    12 1
    5     3     4 ar
    6     3    13 1
    7     4     5 ar
    8     4    14 1
    9     5     6 1
   10     6     7 ar
   11     6    11 ar
   12     7     8 ar
   13     7    15 1
   14     8     9 ar
   15     8    16 1
   16     9    10 ar
   17     9    17 1
   18    10    11 ar
   19    10    18 1
   20    11    19 1
@<TRIPOS>SUBSTRUCTURE
1   ****   1
@<TRIPOS>MOLECULE
1phg
31  32  1  0  0
SMALL
FORMAL_CHARGES
@<TRIPOS>ATOM
    1 N1         1.1685    -0.6809    -0.0003 N.ar       1 ****  0
    2 C1         0.0258    -1.3599    -0.0003 C.ar       1 ****  0
    3 C2        -1.1929    -0.6934    -0.0001 C.ar       1 ****  0
    4 C3        -1.2120     0.6946     0.0001 C.ar       1 ****  0
    5 C4        -0.0017     1.3730     0.0001 C.ar       1 ****  0
    6 C5         1.1843     0.6478    -0.0001 C.ar       1 ****  0
    7 C6        -2.4788    -1.4693     0.0002 C.2        1 ****  0
    8 O1        -3.5183    -0.8015     0.0008 O.2        1 ****  0
    9 C7        -1.8492    -3.5627    -1.3070 C.3        1 ****  0
   10 C8        -2.5297    -3.0405    -0.0206 C.3        1 ****  0
   11 C9        -1.7812    -3.6115     1.2076 C.3        1 ****  0
   12 C10       -3.9356    -3.6674     0.0095 C.ar       1 ****  0
   13 C11       -5.1032    -2.9127    -0.0271 C.ar       1 ****  0
   14 N2        -6.2925    -3.5041    -0.0169 N.ar       1 ****  0
   15 C12       -6.4077    -4.8279     0.0282 C.ar       1 ****  0
   16 C13       -5.2799    -5.6386     0.0663 C.ar       1 ****  0
   17 C14       -4.0218    -5.0520     0.0569 C.ar       1 ****  0
   18 H1         0.0454    -2.4597    -0.0004 H          1 ****  0
   19 H2        -2.1649     1.2441     0.0003 H          1 ****  0
   20 H3         0.0191     2.4728     0.0003 H          1 ****  0
   21 H4         2.1469     1.1800    -0.0001 H          1 ****  0
   22 H5        -0.8009    -3.2302    -1.3289 H          1 ****  0
   23 H6        -2.3767    -3.1678    -2.1878 H          1 ****  0
   24 H7        -1.8847    -4.6621    -1.3217 H          1 ****  0
   25 H8        -2.2576    -3.2414     2.1274 H          1 ****  0
   26 H9        -0.7332    -3.2782     1.1813 H          1 ****  0
   27 H10       -1.8195    -4.7107     1.1886 H          1 ****  0
   28 H11       -5.0412    -1.8151    -0.0649 H          1 ****  0
   29 H12       -7.4075    -5.2866     0.0354 H          1 ****  0
   30 H13       -5.3829    -6.7332     0.1035 H          1 ****  0
   31 H14       -3.1129    -5.6710     0.0863 H          1 ****  0
@<TRIPOS>BOND
    1     1     2 ar
    2     1     6 ar
    3     2     3 ar
    4     2    18 1
    5     3     4 ar
    6     3     7 1
    7     4     5 ar
    8     4    19 1
    9     5     6 ar
   10     5    20 1
   11     6    21 1
   12     7     8 2
   13     7    10 1
   14     9    10 1
   15     9    22 1
   16     9    23 1
   17     9    24 1
   18    10    11 1
   19    10    12 1
   20    11    25 1
   21    11    26 1
   22    11    27 1
   23    12    13 ar
   24    12    17 ar
   25    13    14 ar
   26    13    28 1
   27    14    15 ar
   28    15    16 ar
   29    15    29 1
   30    16    17 ar
   31    16    30 1
   32    17    31 1
@<TRIPOS>SUBSTRUCTURE
1   ****   1
@<TRIPOS>MOLECULE
1poc
75  74  1  0  0
SMALL
FORMAL_CHARGES
@<TRIPOS>ATOM
    1 C1        11.6940     0.8662     0.0631 C.3        1 ****  0
    2 C2        12.9335    -0.0370     0.1812 C.3        1 ****  0
    3 C3        12.8514    -0.7892     1.5170 C.3        1 ****  0
    4 C4         9.3519     0.8722     0.0264 C.3        1 ****  0
    5 C5         8.0958    -0.0188     0.0893 C.3        1 ****  0
    6 C6         6.8328     0.8578    -0.0088 C.3        1 ****  0
    7 C7         5.5797    -0.0362     0.0565 C.3        1 ****  0
    8 C8         4.3171     0.8405    -0.0363 C.3        1 ****  0
    9 C9         3.0642    -0.0521     0.0330 C.3        1 ****  0
   10 C10        1.8026     0.8266    -0.0560 C.3        1 ****  0
   11 C11        0.5488    -0.0646     0.0148 C.3        1 ****  0
   12 C12       16.7552     0.8965    -0.0506 C.3        1 ****  0
   13 C13       18.0210     0.0208    -0.0627 C.3        1 ****  0
   14 C14       19.2777     0.9065    -0.1027 C.3        1 ****  0
   15 C15       20.5253     0.0046    -0.0710 C.3        1 ****  0
   16 C16       21.7958     0.8721    -0.0712 C.3        1 ****  0
   17 C17       23.0348    -0.0413    -0.0241 C.3        1 ****  0
   18 C18       24.3101     0.8207    -0.0120 C.3        1 ****  0
   19 C19       13.0085    -0.2696     6.3337 C.3        1 ****  0
   20 C20       12.9963     0.7406     7.4944 C.3        1 ****  0
   21 N1        13.0745     0.0190     8.7726 N.4        1 ****  1
   22 O1        10.5189     0.0513     0.1198 O.3        1 ****  0
   23 O2        14.1300     0.7755     0.1310 O.3        1 ****  0
   24 O3        12.8564     0.1596     2.5818 O.3        1 ****  0
   25 O4        15.3838    -0.9284    -1.0211 O.2        1 ****  0
   26 O5        15.6039    -0.9285     1.3364 O.2        1 ****  -1
   27 O6        14.0979    -1.3308     3.9722 O.2        1 ****  0
   28 O7        11.7408    -1.5149     4.0641 O.2        1 ****  -1
   29 O8        12.9310     0.4310     5.0915 O.3        1 ****  0
   30 P1        15.4344    -0.0952     0.0782 P.3        1 ****  0
   31 P2        12.9350    -0.5912     3.9294 P.3        1 ****  0
   32 H1        11.7224     1.4054    -0.8953 H          1 ****  0
   33 H2        11.6843     1.5868     0.8941 H          1 ****  0
   34 H3        12.9691    -0.7579    -0.6489 H          1 ****  0
   35 H4        11.9221    -1.3766     1.5521 H          1 ****  0
   36 H5        13.7182    -1.4589     1.6172 H          1 ****  0
   37 H6         9.3637     1.4219    -0.9264 H          1 ****  0
   38 H7         9.3371     1.5862     0.8630 H          1 ****  0
   39 H8         8.1110    -0.7330    -0.7471 H          1 ****  0
   40 H9         8.0844    -0.5708     1.0407 H          1 ****  0
   41 H10        6.8403     1.4082    -0.9612 H          1 ****  0
   42 H11        6.8166     1.5724     0.8273 H          1 ****  0
   43 H12        5.5932    -0.7484    -0.7818 H          1 ****  0
   44 H13        5.5719    -0.5895     1.0072 H          1 ****  0
   45 H14        4.3213     1.3917    -0.9882 H          1 ****  0
   46 H15        4.3043     1.5546     0.8003 H          1 ****  0
   47 H16        3.0743    -0.7642    -0.8054 H          1 ****  0
   48 H17        3.0586    -0.6051     0.9838 H          1 ****  0
   49 H18        1.7926     1.5396     0.7815 H          1 ****  0
   50 H19        1.8056     1.3789    -1.0073 H          1 ****  0
   51 H20        0.5439    -0.6168     0.9662 H          1 ****  0
   52 H21        0.5576    -0.7782    -0.8223 H          1 ****  0
   53 H22       -0.3524     0.5629    -0.0487 H          1 ****  0
   54 H23       16.6951     1.4712    -0.9866 H          1 ****  0
   55 H24       16.7887     1.5814     0.8094 H          1 ****  0
   56 H25       18.0067    -0.6313    -0.9484 H          1 ****  0
   57 H26       18.0428    -0.6019     0.8438 H          1 ****  0
   58 H27       19.2786     1.5026    -1.0272 H          1 ****  0
   59 H28       19.2858     1.5755     0.7704 H          1 ****  0
   60 H29       20.5288    -0.6482    -0.9563 H          1 ****  0
   61 H30       20.5061    -0.6149     0.8378 H          1 ****  0
   62 H31       21.8242     1.4816    -0.9864 H          1 ****  0
   63 H32       21.7923     1.5305     0.8100 H          1 ****  0
   64 H33       23.0013    -0.6580     0.8861 H          1 ****  0
   65 H34       23.0435    -0.6948    -0.9089 H          1 ****  0
   66 H35       24.3032     1.4739     0.8730 H          1 ****  0
   67 H36       24.3447     1.4378    -0.9219 H          1 ****  0
   68 H37       25.1950     0.1681     0.0216 H          1 ****  0
   69 H38       13.9390    -0.8553     6.3682 H          1 ****  0
   70 H39       12.1461    -0.9458     6.4278 H          1 ****  0
   71 H40       13.8595     1.4161     7.4019 H          1 ****  0
   72 H41       12.0663     1.3272     7.4617 H          1 ****  0
   73 H42       13.9454    -0.5300     8.8053 H          1 ****  0
   74 H43       12.2668    -0.6140     8.8607 H          1 ****  0
   75 H44       13.0664     0.6946     9.5500 H          1 ****  0
@<TRIPOS>BOND
    1     1     2 1
    2     1    22 1
    3     1    32 1
    4     1    33 1
    5     2     3 1
    6     2    23 1
    7     2    34 1
    8     3    24 1
    9     3    35 1
   10     3    36 1
   11     4     5 1
   12     4    22 1
   13     4    37 1
   14     4    38 1
   15     5     6 1
   16     5    39 1
   17     5    40 1
   18     6     7 1
   19     6    41 1
   20     6    42 1
   21     7     8 1
   22     7    43 1
   23     7    44 1
   24     8     9 1
   25     8    45 1
   26     8    46 1
   27     9    10 1
   28     9    47 1
   29     9    48 1
   30    10    11 1
   31    10    49 1
   32    10    50 1
   33    11    51 1
   34    11    52 1
   35    11    53 1
   36    12    13 1
   37    12    30 1
   38    12    54 1
   39    12    55 1
   40    13    14 1
   41    13    56 1
   42    13    57 1
   43    14    15 1
   44    14    58 1
   45    14    59 1
   46    15    16 1
   47    15    60 1
   48    15    61 1
   49    16    17 1
   50    16    62 1
   51    16    63 1
   52    17    18 1
   53    17    64 1
   54    17    65 1
   55    18    66 1
   56    18    67 1
   57    18    68 1
   58    19    20 1
   59    19    29 1
   60    19    69 1
   61    19    70 1
   62    20    21 1
   63    20    71 1
   64    20    72 1
   65    21    73 1
   66    21    74 1
   67    21    75 1
   68    25    30 2
   69    27    31 2
   70    29    31 1
   71    30    23 1
   72    30    26 1
   73    31    24 1
   74    31    28 1
@<TRIPOS>SUBSTRUCTURE
1   ****   1
@<TRIPOS>MOLECULE
1ppc
69  72  1  0  0
SMALL
FORMAL_CHARGES
@<TRIPOS>ATOM
    1 S1         2.7096     1.5712    -0.0001 S.O2       1 ****  0
    2 O1         2.7455     2.5133    -1.1881 O.2        1 ****  0
    3 O2         2.8217     2.3823     1.2767 O.2        1 ****  0
    4 C1         1.1858    -0.7029    -0.0003 C.ar       1 ****  0
    5 C2         1.1822     0.6865    -0.0001 C.ar       1 ****  0
    6 C3        -0.0225     1.3795     0.0001 C.ar       1 ****  0
    7 C4        -1.2247     0.6827     0.0001 C.ar       1 ****  0
    8 C5        -2.4230    -1.4038    -0.0002 C.ar       1 ****  0
    9 C6        -2.4194    -2.7935    -0.0004 C.ar       1 ****  0
   10 C7        -1.2143    -3.4859    -0.0006 C.ar       1 ****  0
   11 C8        -0.0123    -2.7889    -0.0006 C.ar       1 ****  0
   12 C9        -0.0161    -1.3994    -0.0003 C.ar       1 ****  0
   13 C10       -1.2211    -0.7069    -0.0001 C.ar       1 ****  0
   14 N1         4.0193     0.4840    -0.0982 N.am       1 ****  0
   15 C11        5.3562     0.9870     0.0269 C.3        1 ****  0
   16 C12        6.3527    -0.1146    -0.1846 C.2        1 ****  0
   17 O3         5.9672    -1.2651    -0.4219 O.2        1 ****  0
   18 C13        8.5559    -1.4124    -1.7509 C.2        1 ****  0
   19 C14        8.7015    -0.8508    -0.3358 C.3        1 ****  0
   20 C15       10.1131    -0.2360    -0.1153 C.3        1 ****  0
   21 C16       11.2125    -1.2682    -0.2031 C.ar       1 ****  0
   22 C17       10.9194    -2.6256    -0.1397 C.ar       1 ****  0
   23 C18       12.5346    -0.8452    -0.2751 C.ar       1 ****  0
   24 C19       11.9482    -3.5597    -0.1491 C.ar       1 ****  0
   25 C20       13.5635    -1.7793    -0.2845 C.ar       1 ****  0
   26 C21       13.2700    -3.1363    -0.2215 C.ar       1 ****  0
   27 C22       14.3556    -4.1219    -0.2314 C.2        1 ****  0
   28 O4         8.4625    -2.6362    -1.8963 O.2        1 ****  0
   29 N2         7.7190     0.1713    -0.1029 N.am       1 ****  0
   30 N3        15.6850    -3.6996    -0.3041 N.3        1 ****  0
   31 N4        14.0870    -5.3632    -0.1737 N.2        1 ****  1
   32 N5         8.5211    -0.5879    -2.9090 N.am       1 ****  0
   33 C23        8.5972     0.8446    -2.8205 C.3        1 ****  0
   34 C24        7.4212     1.4714    -3.5923 C.3        1 ****  0
   35 C25        7.4115     0.9252    -5.0301 C.3        1 ****  0
   36 C26        7.2273    -0.6006    -4.9687 C.3        1 ****  0
   37 C27        8.4038    -1.2219    -4.1932 C.3        1 ****  0
   38 H1         2.1396    -1.2509    -0.0004 H          1 ****  0
   39 H2        -0.0243     2.4795     0.0003 H          1 ****  0
   40 H3        -2.1785     1.2306     0.0003 H          1 ****  0
   41 H4        -3.3769    -0.8560     0.0000 H          1 ****  0
   42 H5        -3.3707    -3.3457    -0.0004 H          1 ****  0
   43 H6        -1.2122    -4.5859    -0.0008 H          1 ****  0
   44 H7         0.9416    -3.3366    -0.0007 H          1 ****  0
   45 H8         3.8523    -0.5216    -0.2456 H          1 ****  0
   46 H9         5.5204     1.7749    -0.7229 H          1 ****  0
   47 H10        5.4933     1.4133     1.0316 H          1 ****  0
   48 H11        8.5563    -1.6856     0.3656 H          1 ****  0
   49 H12       10.2897     0.5404    -0.8743 H          1 ****  0
   50 H13       10.1480     0.2403     0.8757 H          1 ****  0
   51 H14        9.8731    -2.9603    -0.0821 H          1 ****  0
   52 H15       12.7665     0.2289    -0.3247 H          1 ****  0
   53 H16       11.7165    -4.6339    -0.0992 H          1 ****  0
   54 H17       14.6098    -1.4448    -0.3418 H          1 ****  0
   55 H18        8.0251     1.1274     0.1273 H          1 ****  0
   56 H19       15.9027    -2.6939    -0.3508 H          1 ****  0
   57 H20       16.4469    -4.3926    -0.3109 H          1 ****  0
   58 H21       14.8489    -6.0563    -0.1806 H          1 ****  0
   59 H22       13.1070    -5.6758    -0.1200 H          1 ****  0
   60 H23        8.5464     1.1499    -1.7649 H          1 ****  0
   61 H24        9.5463     1.1900    -3.2564 H          1 ****  0
   62 H25        7.5374     2.5650    -3.6164 H          1 ****  0
   63 H26        6.4751     1.2117    -3.0948 H          1 ****  0
   64 H27        6.5785     1.3748    -5.5904 H          1 ****  0
   65 H28        8.3662     1.1615    -5.5226 H          1 ****  0
   66 H29        7.2038    -1.0103    -5.9892 H          1 ****  0
   67 H30        6.2838    -0.8365    -4.4546 H          1 ****  0
   68 H31        8.2241    -2.2985    -4.0566 H          1 ****  0
   69 H32        9.3345    -1.0751    -4.7609 H          1 ****  0
@<TRIPOS>BOND
    1     1     2 2
    2     1     3 2
    3     1     5 1
    4     1    14 am
    5     4     5 ar
    6     4    12 ar
    7     4    38 1
    8     5     6 ar
    9     6     7 ar
   10     6    39 1
   11     7    13 ar
   12     7    40 1
   13     8     9 ar
   14     8    13 ar
   15     8    41 1
   16     9    10 ar
   17     9    42 1
   18    10    11 ar
   19    10    43 1
   20    11    12 ar
   21    11    44 1
   22    12    13 ar
   23    14    15 1
   24    14    45 1
   25    15    16 1
   26    15    46 1
   27    15    47 1
   28    16    17 2
   29    16    29 am
   30    18    19 1
   31    18    28 2
   32    18    32 am
   33    19    20 1
   34    19    29 1
   35    19    48 1
   36    20    21 1
   37    20    49 1
   38    20    50 1
   39    21    22 ar
   40    21    23 ar
   41    22    24 ar
   42    22    51 1
   43    23    25 ar
   44    23    52 1
   45    24    26 ar
   46    24    53 1
   47    25    26 ar
   48    25    54 1
   49    26    27 1
   50    27    30 1
   51    27    31 2
   52    29    55 1
   53    30    56 1
   54    30    57 1
   55    31    58 1
   56    31    59 1
   57    32    33 1
   58    32    37 1
   59    33    34 1
   60    33    60 1
   61    33    61 1
   62    34    35 1
   63    34    62 1
   64    34    63 1
   65    35    36 1
   66    35    64 1
   67    35    65 1
   68    36    37 1
   69    36    66 1
   70    36    67 1
   71    37    68 1
   72    37    69 1
@<TRIPOS>SUBSTRUCTURE
1   ****   1
@<TRIPOS>MOLECULE
1pph
59  61  1  0  0
SMALL
FORMAL_CHARGES
@<TRIPOS>ATOM
    1 S1         2.7028    -1.5604    -0.0002 S.O2       1 ****  0
    2 O1         2.7620    -2.4598     1.2197 O.2        1 ****  0
    3 O2         2.7874    -2.4170    -1.2489 O.2        1 ****  0
    4 C1         1.1752    -0.6789    -0.0001 C.ar       1 ****  0
    5 C2         1.1761     0.7109     0.0001 C.ar       1 ****  0
    6 C3        -0.0272     1.4058     0.0001 C.ar       1 ****  0
    7 C4        -1.2306     0.7104    -0.0001 C.ar       1 ****  0
    8 C5        -1.2316    -0.6794    -0.0003 C.ar       1 ****  0
    9 C6        -0.0281    -1.3743    -0.0003 C.ar       1 ****  0
   10 C7        -2.5274     1.4601    -0.0001 C.3        1 ****  0
   11 C8         5.3939    -1.4956     1.7258 C.2        1 ****  0
   12 C9         5.3313    -0.9606     0.2978 C.3        1 ****  0
   13 C10        6.3779     0.1633     0.0590 C.3        1 ****  0
   14 C11        7.7915    -0.3599     0.1786 C.ar       1 ****  0
   15 C12        8.0485    -1.7253     0.1450 C.ar       1 ****  0
   16 C13        8.8456     0.5438     0.2492 C.ar       1 ****  0
   17 C14        9.3588    -2.1868     0.1828 C.ar       1 ****  0
   18 C15       10.1559     0.0822     0.2870 C.ar       1 ****  0
   19 C16       10.4124    -1.2832     0.2538 C.ar       1 ****  0
   20 C17        9.6297    -3.6275     0.1478 C.2        1 ****  0
   21 O3         5.7474    -2.6661     1.9050 O.2        1 ****  0
   22 N1         4.0120    -0.4676     0.0216 N.am       1 ****  0
   23 N2         8.6656    -4.4537     0.0828 N.2        1 ****  1
   24 N3        10.9456    -4.0942     0.1856 N.3        1 ****  0
   25 N4         5.0311    -0.7156     2.8571 N.am       1 ****  0
   26 C18        4.5687     0.6387     2.7243 C.3        1 ****  0
   27 C19        5.3919     1.5565     3.6471 C.3        1 ****  0
   28 C20        5.3407     1.0073     5.0829 C.3        1 ****  0
   29 C21        5.9541    -0.4031     5.0855 C.3        1 ****  0
   30 C22        5.1294    -1.3157     4.1589 C.3        1 ****  0
   31 H1         2.1289     1.2606     0.0003 H          1 ****  0
   32 H2        -0.0274     2.5058     0.0003 H          1 ****  0
   33 H3        -2.1845    -1.2290    -0.0005 H          1 ****  0
   34 H4        -0.0280    -2.4743    -0.0005 H          1 ****  0
   35 H5        -2.4809     2.1116    -0.8852 H          1 ****  0
   36 H6        -2.4811     2.1113     0.8853 H          1 ****  0
   37 H7        -3.4167     0.8127    -0.0002 H          1 ****  0
   38 H8         5.5685    -1.7899    -0.3848 H          1 ****  0
   39 H9         6.2261     0.9635     0.7983 H          1 ****  0
   40 H10        6.2333     0.5845    -0.9468 H          1 ****  0
   41 H11        7.2148    -2.4407     0.0885 H          1 ****  0
   42 H12        8.6424     1.6246     0.2752 H          1 ****  0
   43 H13       10.9897     0.7974     0.3431 H          1 ****  0
   44 H14       11.4494    -1.6489     0.2836 H          1 ****  0
   45 H15        3.8577     0.5342    -0.1612 H          1 ****  0
   46 H16        8.8551    -5.4658     0.0582 H          1 ****  0
   47 H17        7.6947    -4.1108     0.0549 H          1 ****  0
   48 H18       11.7267    -3.4248     0.2382 H          1 ****  0
   49 H19       11.1350    -5.1063     0.1610 H          1 ****  0
   50 H20        4.6882     0.9664     1.6811 H          1 ****  0
   51 H21        3.5069     0.6940     3.0062 H          1 ****  0
   52 H22        4.9703     2.5723     3.6279 H          1 ****  0
   53 H23        6.4360     1.5838     3.3019 H          1 ****  0
   54 H24        5.9201     1.6626     5.7499 H          1 ****  0
   55 H25        4.2957     0.9554     5.4225 H          1 ****  0
   56 H26        5.9396    -0.8093     6.1077 H          1 ****  0
   57 H27        6.9914    -0.3534     4.7229 H          1 ****  0
   58 H28        5.6233    -2.2951     4.0760 H          1 ****  0
   59 H29        4.1213    -1.4483     4.5785 H          1 ****  0
@<TRIPOS>BOND
    1     1     2 2
    2     1     3 2
    3     1     4 1
    4     1    22 am
    5     4     5 ar
    6     4     9 ar
    7     5     6 ar
    8     5    31 1
    9     6     7 ar
   10     6    32 1
   11     7     8 ar
   12     7    10 1
   13     8     9 ar
   14     8    33 1
   15     9    34 1
   16    10    35 1
   17    10    36 1
   18    10    37 1
   19    11    12 1
   20    11    21 2
   21    11    25 am
   22    12    13 1
   23    12    22 1
   24    12    38 1
   25    13    14 1
   26    13    39 1
   27    13    40 1
   28    14    15 ar
   29    14    16 ar
   30    15    17 ar
   31    15    41 1
   32    16    18 ar
   33    16    42 1
   34    17    19 ar
   35    17    20 1
   36    18    19 ar
   37    18    43 1
   38    19    44 1
   39    20    23 2
   40    20    24 1
   41    22    45 1
   42    23    46 1
   43    23    47 1
   44    24    48 1
   45    24    49 1
   46    25    26 1
   47    25    30 1
   48    26    27 1
   49    26    50 1
   50    26    51 1
   51    27    28 1
   52    27    52 1
   53    27    53 1
   54    28    29 1
   55    28    54 1
   56    28    55 1
   57    29    30 1
   58    29    56 1
   59    29    57 1
   60    30    58 1
   61    30    59 1
@<TRIPOS>SUBSTRUCTURE
1   ****   1
@<TRIPOS>MOLECULE
1ppi
109  113  1  0  0
SMALL
FORMAL_CHARGES
@<TRIPOS>ATOM
    1 C1         1.2956    -1.0537     0.1647 C.3        1 ****  0
    2 C2         1.4764     1.0040    -0.5561 C.3        1 ****  0
    3 C3         0.7260     1.6011    -0.2487 C.3        1 ****  0
    4 C4        -0.8099     0.5445    -0.7912 C.3        1 ****  0
    5 C5        -0.4860    -0.7321     0.8004 C.3        1 ****  0
    6 C6        -2.0719    -1.8767     1.9494 C.3        1 ****  0
    7 O1         2.7526     1.8006    -0.4387 O.3        1 ****  0
    8 O2         1.2593     2.9365    -0.8451 O.3        1 ****  0
    9 O3        -2.2372     1.2152    -2.1359 O.3        1 ****  0
   10 O4         0.3419    -1.9807    -0.1647 O.3        1 ****  0
   11 O5        -2.3090    -1.5142     3.2085 O.3        1 ****  0
   12 C7        -2.7103     0.5156     4.9041 C.3        1 ****  0
   13 C8        -0.6769     0.9719     4.6579 C.3        1 ****  0
   14 C9         0.1465     0.5795     3.7530 C.3        1 ****  0
   15 C10        0.3294    -0.8994     3.5443 C.3        1 ****  0
   16 C11       -1.3506    -1.9349     3.6188 C.3        1 ****  0
   17 C12       -1.2184    -4.1541     3.1229 C.3        1 ****  0
   18 O6         0.0026     2.6081     3.7238 O.3        1 ****  0
   19 O7         1.2518     1.0691     3.3466 O.3        1 ****  0
   20 O8         1.2363    -1.0664     1.7630 O.3        1 ****  0
   21 O9        -2.0852    -1.3846     5.3484 O.3        1 ****  0
   22 O10       -1.9128    -4.1427     1.2157 O.3        1 ****  0
   23 C13        1.8060     1.9905     5.4768 C.3        1 ****  0
   24 C14        2.9328     2.7620     4.1735 C.3        1 ****  0
   25 C15        3.0536     2.2455     2.1879 C.3        1 ****  0
   26 C16        4.2427    -0.0830     1.1634 C.3        1 ****  0
   27 C17        2.2603    -0.4914     3.0353 C.3        1 ****  0
   28 C18        1.9666    -3.0424     2.8861 C.3        1 ****  0
   29 O11        2.6157     4.1819     4.3863 O.3        1 ****  0
   30 O12        3.9215     3.2134     1.5957 O.3        1 ****  0
   31 O13        2.5864    -0.0729     5.0972 O.3        1 ****  0
   32 N1         2.6842    -0.4755    -1.7283 N.4        1 ****  1
   33 C19        0.3906    -0.1376    -2.9553 C.3        1 ****  0
   34 C20       -0.3230     2.2764    -2.7177 C.3        1 ****  0
   35 C21       -1.4618     3.0649    -0.6143 C.3        1 ****  0
   36 C22       -3.0479     1.8194    -0.0238 C.3        1 ****  0
   37 C23       -3.0037    -0.5882    -1.2443 C.2        1 ****  0
   38 C24       -1.8711    -1.0645    -2.3836 C.2        1 ****  0
   39 C25       -4.3115    -1.8088    -0.8228 C.3        1 ****  0
   40 O14        0.7321     3.1239    -3.2098 O.3        1 ****  0
   41 O15       -1.5651     4.5215    -0.2775 O.3        1 ****  0
   42 O16       -4.2628     1.7774     3.0123 O.3        1 ****  0
   43 O17       -4.1675    -3.4643    -0.5461 O.3        1 ****  0
   44 C26       -5.4378     1.9564     0.8350 C.3        1 ****  0
   45 C27       -4.4090     3.6361     1.3957 C.3        1 ****  0
   46 C28       -2.5512     3.7080     2.3869 C.3        1 ****  0
   47 C29       -2.3164     2.8263     3.7860 C.3        1 ****  0
   48 C30       -1.9506     1.7694     1.8671 C.3        1 ****  0
   49 C31       -1.5815     0.7411     1.6266 C.3        1 ****  0
   50 O18       -5.6091     0.9890    -0.4070 O.3        1 ****  0
   51 O19       -4.3431     4.4535     0.1014 O.3        1 ****  0
   52 O20       -2.1181     5.0436     2.6731 O.3        1 ****  0
   53 O21       -0.4566     2.9349     5.6223 O.3        1 ****  0
   54 O22       -4.3024     0.6271     1.4220 O.3        1 ****  0
   55 O23       -0.5796     0.1417     1.6853 O.3        1 ****  0
   56 H1         2.3655    -1.6541    -0.1491 H          1 ****  0
   57 H2         1.4877     1.1068    -1.6007 H          1 ****  0
   58 H3         0.7580     1.7199     0.7695 H          1 ****  0
   59 H4        -0.5451     0.3778    -1.2693 H          1 ****  0
   60 H5         0.0107     0.0819     1.4746 H          1 ****  0
   61 H6        -3.3012    -2.0516     1.6135 H          1 ****  0
   62 H7        -2.0497    -3.1420     2.1639 H          1 ****  0
   63 H8         3.5483     1.3883    -0.9437 H          1 ****  0
   64 H9         0.7832     3.7697    -0.5948 H          1 ****  0
   65 H10       -2.7176     2.1457    -2.1874 H          1 ****  0
   66 H11       -1.7812    -0.9118     3.4530 H          1 ****  0
   67 H12       -3.1691     0.9318     5.8459 H          1 ****  0
   68 H13       -0.2203     0.7723     5.5743 H          1 ****  0
   69 H14       -0.1000     1.3950     2.9690 H          1 ****  0
   70 H15        0.9237    -0.6266     4.3845 H          1 ****  0
   71 H16       -2.0730    -1.3938     2.7814 H          1 ****  0
   72 H17       -0.3244    -4.9774     3.1543 H          1 ****  0
   73 H18       -1.9649    -4.8749     3.7511 H          1 ****  0
   74 H19       -0.2752     3.7099     4.0001 H          1 ****  0
   75 H20        1.9615     0.6985     3.5842 H          1 ****  0
   76 H21       -2.6031    -3.2673     0.5572 H          1 ****  0
   77 H22        2.1894     2.2774     6.5130 H          1 ****  0
   78 H23        3.9350     2.5979     4.5151 H          1 ****  0
   79 H24        2.0124     2.5755     1.8492 H          1 ****  0
   80 H25        5.2270    -0.3885     0.9970 H          1 ****  0
   81 H26        1.5417     0.2955     2.8390 H          1 ****  0
   82 H27        2.5116    -3.5148     2.0555 H          1 ****  0
   83 H28        1.0046    -2.7282     2.4547 H          1 ****  0
   84 H29        1.8845    -3.6052     3.6853 H          1 ****  0
   85 H30        1.6111     4.3184     4.3867 H          1 ****  0
   86 H31        3.8049     3.2163     0.6350 H          1 ****  0
   87 H32        2.8939    -1.5009    -1.9334 H          1 ****  0
   88 H33        3.3274     0.0674    -2.3640 H          1 ****  0
   89 H34        0.4209    -0.8174    -2.1257 H          1 ****  0
   90 H35       -1.1522     2.4663    -3.4430 H          1 ****  0
   91 H36       -0.7963     2.9567     0.2486 H          1 ****  0
   92 H37       -3.6528     2.2654    -0.5465 H          1 ****  0
   93 H38       -2.1626    -1.9111    -2.9695 H          1 ****  0
   94 H39       -5.1773    -1.6812    -1.6098 H          1 ****  0
   95 H40       -4.9163    -1.3730     0.0916 H          1 ****  0
   96 H41        1.5945     2.8512    -2.8588 H          1 ****  0
   97 H42       -2.3278     4.9539    -0.5465 H          1 ****  0
   98 H43       -4.1162    -3.8425     0.5144 H          1 ****  0
   99 H44       -5.3038     2.5080    -0.1957 H          1 ****  0
  100 H45       -5.1097     4.1703     2.0133 H          1 ****  0
  101 H46       -1.7853     3.2919     1.7844 H          1 ****  0
  102 H47       -3.2827     3.0373     4.3922 H          1 ****  0
  103 H48       -1.4220     2.6025     1.3734 H          1 ****  0
  104 H49       -2.0823     0.3795     0.6365 H          1 ****  0
  105 H50       -1.2682     1.7986     1.2539 H          1 ****  0
  106 H51       -4.7649     0.7339    -0.8743 H          1 ****  0
  107 H52       -3.8214     4.0104    -0.6576 H          1 ****  0
  108 H53       -2.6376     5.4428     3.3806 H          1 ****  0
  109 H54       -0.1077     0.2435     1.1757 H          1 ****  0
@<TRIPOS>BOND
    1     1     2 1
    2     1    10 1
    3     1    20 1
    4     1    56 1
    5     2     3 1
    6     2     7 1
    7     2    57 1
    8     3     4 1
    9     3     8 1
   10     3    58 1
   11     4     5 1
   12     4     9 1
   13     4    59 1
   14     5     6 1
   15     5    10 1
   16     5    60 1
   17     6    11 1
   18     6    61 1
   19     6    62 1
   20     7    63 1
   21     8    64 1
   22     9    65 1
   23    11    66 1
   24    12    13 1
   25    12    21 1
   26    12    42 1
   27    12    67 1
   28    13    14 1
   29    13    18 1
   30    13    68 1
   31    14    15 1
   32    14    19 1
   33    14    69 1
   34    15    16 1
   35    15    20 1
   36    15    70 1
   37    16    17 1
   38    16    21 1
   39    16    71 1
   40    17    22 1
   41    17    72 1
   42    17    73 1
   43    18    74 1
   44    19    75 1
   45    22    76 1
   46    23    24 1
   47    23    31 1
   48    23    53 1
   49    23    77 1
   50    24    25 1
   51    24    29 1
   52    24    78 1
   53    25    26 1
   54    25    30 1
   55    25    79 1
   56    26    27 1
   57    26    32 1
   58    26    80 1
   59    27    28 1
   60    27    31 1
   61    27    81 1
   62    28    82 1
   63    28    83 1
   64    28    84 1
   65    29    85 1
   66    30    86 1
   67    32    87 1
   68    32    88 1
   69    33    32 1
   70    33    34 1
   71    33    38 1
   72    33    89 1
   73    34    35 1
   74    34    40 1
   75    34    90 1
   76    35    36 1
   77    35    41 1
   78    35    91 1
   79    36    37 1
   80    36    42 1
   81    36    92 1
   82    37    38 2
   83    37    39 1
   84    38    93 1
   85    39    43 1
   86    39    94 1
   87    39    95 1
   88    40    96 1
   89    41    97 1
   90    43    98 1
   91    44    45 1
   92    44    50 1
   93    44    54 1
   94    44    99 1
   95    45    46 1
   96    45    51 1
   97    45   100 1
   98    46    47 1
   99    46    52 1
  100    46   101 1
  101    47    48 1
  102    47    53 1
  103    47   102 1
  104    48    49 1
  105    48    54 1
  106    48   103 1
  107    49    55 1
  108    49   104 1
  109    49   105 1
  110    50   106 1
  111    51   107 1
  112    52   108 1
  113    55   109 1
@<TRIPOS>SUBSTRUCTURE
1   ****   1
@<TRIPOS>MOLECULE
1pso
110  109  1  0  0
SMALL
FORMAL_CHARGES
@<TRIPOS>ATOM
    1 C1         3.1573    -0.1130     0.1225 C.3        1 ****  0
    2 C2         1.8714     0.7451     0.0334 C.3        1 ****  0
    3 C3         0.6417    -0.1641     0.2151 C.3        1 ****  0
    4 C4         1.7845     1.4288    -1.3492 C.3        1 ****  0
    5 C5         4.3933     0.7537     0.0651 C.2        1 ****  0
    6 O1         4.2982     1.9835     0.1249 O.2        1 ****  0
    7 N1         5.6588     0.1523    -0.0111 N.am       1 ****  0
    8 C6         6.8025     0.2232    -0.9258 C.3        1 ****  0
    9 C7         8.0668     0.0733     0.0014 C.2        1 ****  0
   10 O2         7.9131    -1.1394     0.1528 O.2        1 ****  0
   11 C8         6.8123     1.7305    -1.4690 C.3        1 ****  0
   12 C9         8.0006     2.7013    -1.6075 C.3        1 ****  0
   13 C10        6.8159     0.7238    -2.6348 C.3        1 ****  0
   14 N2         9.3698     0.6249    -0.0077 N.am       1 ****  0
   15 C11       10.5071     0.5554     0.9362 C.3        1 ****  0
   16 C12       11.7864     0.6403     0.0295 C.2        1 ****  0
   17 O3        11.6666     1.8527    -0.1575 O.2        1 ****  0
   18 C13       10.4701    -0.9355     1.5314 C.3        1 ****  0
   19 C14       11.6321    -1.9311     1.7127 C.3        1 ****  0
   20 C15       10.4909     0.1086     2.6633 C.3        1 ****  0
   21 N3        13.0786     0.0535     0.0645 N.am       1 ****  0
   22 C16       14.3010     0.0873    -0.8809 C.3        1 ****  0
   23 C17       14.3140     1.5757    -1.4875 C.3        1 ****  0
   24 C18       14.4849     0.5880    -2.6871 C.3        1 ****  0
   25 C19       14.6347     1.4012    -3.9841 C.3        1 ****  0
   26 C20       13.2788    -0.3632    -2.8430 C.3        1 ****  0
   27 C21       15.5219     0.7380     0.8768 C.3        1 ****  0
   28 O4        15.5148    -0.6653     1.3404 O.3        1 ****  0
   29 C22       16.8238     0.8745    -0.0152 C.3        1 ****  0
   30 C23       18.0614     0.0075     0.0503 C.2        1 ****  0
   31 O5        17.9443    -1.2230     0.0302 O.2        1 ****  0
   32 N4        19.3465     0.6024     0.0789 N.am       1 ****  0
   33 C24       20.6329     0.4476     0.9248 C.3        1 ****  0
   34 C25       21.7809     0.6513    -0.0963 C.2        1 ****  0
   35 O6        21.6609     1.8563    -0.3440 O.2        1 ****  0
   36 C26       20.6779    -1.0961     1.3023 C.3        1 ****  0
   37 N5        23.0646     0.0718     0.0356 N.am       1 ****  0
   38 C27       24.3135     0.0705    -0.8846 C.3        1 ****  0
   39 C28       24.3547     1.5447    -1.5291 C.3        1 ****  0
   40 C29       24.5849     0.5303    -2.6943 C.3        1 ****  0
   41 C30       24.7816     1.3123    -4.0045 C.3        1 ****  0
   42 C31       23.3979    -0.4388    -2.8712 C.3        1 ****  0
   43 C32       25.4991     0.7793     0.8596 C.3        1 ****  0
   44 O7        25.4789    -0.6110     1.3883 O.3        1 ****  0
   45 C33       26.7965     0.8637    -0.0251 C.3        1 ****  0
   46 C34       28.0222     0.0038     0.1033 C.2        1 ****  0.0000
   47 O8        29.1454     0.5178     0.0481 O.co2      1 ****  -0.50
   48 O9        27.8985    -1.3399     0.2564 O.co2      1 ****  -0.50
   49 H1         3.1771    -0.8270    -0.7141 H          1 ****  0
   50 H2         3.1534    -0.6758     1.0676 H          1 ****  0
   51 H3         1.8979     1.5130     0.8205 H          1 ****  0
   52 H4         0.6866    -0.6546     1.1987 H          1 ****  0
   53 H5         0.6268    -0.9284    -0.5759 H          1 ****  0
   54 H6        -0.2736     0.4426     0.1523 H          1 ****  0
   55 H7         1.7664     0.6585    -2.1342 H          1 ****  0
   56 H8         2.6652     2.0722    -1.4915 H          1 ****  0
   57 H9         0.8696     2.0368    -1.4070 H          1 ****  0
   58 H10        5.7419    -0.8742     0.0082 H          1 ****  0
   59 H11        6.7631    -0.5205    -1.7352 H          1 ****  0
   60 H12        5.8902     2.3296    -1.4967 H          1 ****  0
   61 H13        8.9329     2.1225    -1.5312 H          1 ****  0
   62 H14        7.9600     3.4212    -0.7768 H          1 ****  0
   63 H15        7.9586     3.2297    -2.5714 H          1 ****  0
   64 H16        5.9303     0.0755    -2.5607 H          1 ****  0
   65 H17        7.7252     0.1069    -2.5823 H          1 ****  0
   66 H18        6.7949     1.2662    -3.5915 H          1 ****  0
   67 H19        9.4911     1.6402    -0.1317 H          1 ****  0
   68 H20       10.4805     1.3292     1.7176 H          1 ****  0
   69 H21        9.5317    -1.5081     1.5702 H          1 ****  0
   70 H22       12.5800    -1.3795     1.6279 H          1 ****  0
   71 H23       11.5809    -2.6770     0.9059 H          1 ****  0
   72 H24       11.5672    -2.4265     2.6927 H          1 ****  0
   73 H25        9.6245     0.7783     2.5589 H          1 ****  0
   74 H26       11.4175     0.6981     2.5999 H          1 ****  0
   75 H27       10.4458    -0.4010     3.6371 H          1 ****  0
   76 H28       13.1698    -0.9622     0.2087 H          1 ****  0
   77 H29       14.3287    -0.6866    -1.6621 H          1 ****  0
   78 H30       13.3820     2.1438    -1.6239 H          1 ****  0
   79 H31       15.1474     2.2936    -1.4960 H          1 ****  0
   80 H32       15.3769    -0.0243    -2.4881 H          1 ****  0
   81 H33       15.5201     2.0504    -3.9167 H          1 ****  0
   82 H34       13.7374     2.0171    -4.1433 H          1 ****  0
   83 H35       14.7554     0.7115    -4.8325 H          1 ****  0
   84 H36       12.3767     0.2480    -2.9936 H          1 ****  0
   85 H37       13.1676    -0.9328    -1.9086 H          1 ****  0
   86 H38       13.4259    -1.0457    -3.6931 H          1 ****  0
   87 H39       15.4954     1.4862     1.6826 H          1 ****  0
   88 H40       14.7121    -1.2423     1.3929 H          1 ****  0
   89 H41       16.8330     1.5867     0.8232 H          1 ****  0
   90 H42       16.8187     1.4318    -0.9636 H          1 ****  0
   91 H43       19.4288     1.6282     0.1233 H          1 ****  0
   92 H44       20.7159     1.1050     1.8029 H          1 ****  0
   93 H45       19.7951    -1.7497     1.3594 H          1 ****  0
   94 H46       20.6978    -0.4449     2.1886 H          1 ****  0
   95 H47       21.5956    -1.7008     1.2549 H          1 ****  0
   96 H48       23.1461    -0.9324     0.2500 H          1 ****  0
   97 H49       24.3589    -0.7242    -1.6438 H          1 ****  0
   98 H50       23.4218     2.0966    -1.7165 H          1 ****  0
   99 H51       25.1788     2.2734    -1.5237 H          1 ****  0
  100 H52       25.4747    -0.0668    -2.4459 H          1 ****  0
  101 H53       25.6574     1.9720    -3.9164 H          1 ****  0
  102 H54       23.8862     1.9149    -4.2165 H          1 ****  0
  103 H55       24.9443     0.6030    -4.8294 H          1 ****  0
  104 H56       22.4950     0.1563    -3.0726 H          1 ****  0
  105 H57       23.2573    -0.9862    -1.9275 H          1 ****  0
  106 H58       23.5862    -1.1408    -3.6969 H          1 ****  0
  107 H59       25.4720     1.5677     1.6262 H          1 ****  0
  108 H60       24.6688    -1.1756     1.4586 H          1 ****  0
  109 H61       26.8046     1.3672    -1.0031 H          1 ****  0
  110 H62       26.7967     1.6207     0.7730 H          1 ****  0
@<TRIPOS>BOND
    1     1     2 1
    2     1     5 1
    3     1    49 1
    4     1    50 1
    5     2     3 1
    6     2     4 1
    7     2    51 1
    8     3    52 1
    9     3    53 1
   10     3    54 1
   11     4    55 1
   12     4    56 1
   13     4    57 1
   14     5     6 2
   15     5     7 am
   16     7    58 1
   17     8     7 1
   18     8     9 1
   19     8    11 1
   20     8    59 1
   21     9    10 2
   22     9    14 am
   23    11    12 1
   24    11    13 1
   25    11    60 1
   26    12    61 1
   27    12    62 1
   28    12    63 1
   29    13    64 1
   30    13    65 1
   31    13    66 1
   32    14    67 1
   33    15    14 1
   34    15    16 1
   35    15    18 1
   36    15    68 1
   37    16    17 2
   38    16    21 am
   39    18    19 1
   40    18    20 1
   41    18    69 1
   42    19    70 1
   43    19    71 1
   44    19    72 1
   45    20    73 1
   46    20    74 1
   47    20    75 1
   48    21    76 1
   49    22    21 1
   50    22    23 1
   51    22    27 1
   52    22    77 1
   53    23    24 1
   54    23    78 1
   55    23    79 1
   56    24    25 1
   57    24    26 1
   58    24    80 1
   59    25    81 1
   60    25    82 1
   61    25    83 1
   62    26    84 1
   63    26    85 1
   64    26    86 1
   65    27    28 1
   66    27    29 1
   67    27    87 1
   68    28    88 1
   69    29    30 1
   70    29    89 1
   71    29    90 1
   72    30    31 2
   73    30    32 am
   74    32    33 1
   75    32    91 1
   76    33    34 1
   77    33    36 1
   78    33    92 1
   79    34    35 2
   80    34    37 am
   81    36    93 1
   82    36    94 1
   83    36    95 1
   84    37    96 1
   85    38    37 1
   86    38    39 1
   87    38    43 1
   88    38    97 1
   89    39    40 1
   90    39    98 1
   91    39    99 1
   92    40    41 1
   93    40    42 1
   94    40   100 1
   95    41   101 1
   96    41   102 1
   97    41   103 1
   98    42   104 1
   99    42   105 1
  100    42   106 1
  101    43    44 1
  102    43    45 1
  103    43   107 1
  104    44   108 1
  105    45    46 1
  106    45   109 1
  107    45   110 1
  108    46    47 ar
  109    46    48 ar
@<TRIPOS>SUBSTRUCTURE
1   ****   1
@<TRIPOS>MOLECULE
1ptv
27  27  1  0  0
SMALL
FORMAL_CHARGES
@<TRIPOS>ATOM
    1 N1         3.7158     0.2390    -1.3622 N.4        1 ****  1
    2 C1         3.7134    -0.4867    -0.0801 C.3        1 ****  0
    3 C2         4.9786    -1.2872     0.0210 C.2        1 ****  0.0000
    4 O1         6.0750    -0.7205    -0.0470 O.co2      1 ****  -0.50
    5 C3         2.4988    -1.4430    -0.0021 C.3        1 ****  0
    6 C4         1.1920    -0.6884    -0.0001 C.ar       1 ****  0
    7 C5         1.1928     0.7015     0.0001 C.ar       1 ****  0
    8 C6        -0.0114    -1.3835    -0.0003 C.ar       1 ****  0
    9 C7        -0.0106     1.3965     0.0001 C.ar       1 ****  0
   10 C8        -1.2147    -0.6886    -0.0003 C.ar       1 ****  0
   11 C9        -1.2141     0.7012    -0.0001 C.ar       1 ****  0
   12 O2        -2.4320     1.4051    -0.0001 O.3        1 ****  0
   13 O3         4.9189    -2.6357     0.1719 O.co2      1 ****  -0.50
   14 P1        -2.2529     2.9599    -0.0101 P.3        1 ****  0
   15 O4        -1.4830     3.4152     1.2192 O.2        1 ****  -1
   16 O5        -1.5264     3.3973    -1.2717 O.2        1 ****  -1
   17 O6        -3.5015     3.5484     0.0080 O.2        1 ****  0
   18 H1         2.8446     0.7824    -1.4432 H          1 ****  0
   19 H2         3.7638    -0.4413    -2.1341 H          1 ****  0
   20 H3         4.5265     0.8728    -1.4062 H          1 ****  0
   21 H4         3.6475     0.2365     0.7462 H          1 ****  0
   22 H5         2.5196    -2.1244    -0.8654 H          1 ****  0
   23 H6         2.5689    -2.0434     0.9169 H          1 ****  0
   24 H7         2.1457     1.2512     0.0003 H          1 ****  0
   25 H8        -0.0113    -2.4835    -0.0004 H          1 ****  0
   26 H9        -0.0107     2.4965     0.0003 H          1 ****  0
   27 H10       -2.1675    -1.2383    -0.0004 H          1 ****  0
@<TRIPOS>BOND
    1     1    18 1
    2     1    19 1
    3     1    20 1
    4     2     1 1
    5     2     3 1
    6     2     5 1
    7     2    21 1
    8     3     4 ar
    9     3    13 ar
   10     5     6 1
   11     5    22 1
   12     5    23 1
   13     6     7 ar
   14     6     8 ar
   15     7     9 ar
   16     7    24 1
   17     8    10 ar
   18     8    25 1
   19     9    11 ar
   20     9    26 1
   21    10    11 ar
   22    10    27 1
   23    11    12 1
   24    12    14 1
   25    14    15 1
   26    14    16 1
   27    14    17 2
@<TRIPOS>SUBSTRUCTURE
1   ****   1
@<TRIPOS>MOLECULE
1qbr
92  98  1  0  0
SMALL
FORMAL_CHARGES
@<TRIPOS>ATOM
    1 C1         1.5927    -0.2685    -0.0230 C.2        1 ****  0
    2 C2         2.4418     1.9487     0.5987 C.3        1 ****  0
    3 C3         0.0724     0.5249    -0.7656 C.3        1 ****  0
    4 C4        -1.3257     1.0809     0.0522 C.3        1 ****  0
    5 C5        -1.6312    -0.4233    -0.0728 C.3        1 ****  0
    6 C6        -0.1560    -0.5040     0.8578 C.3        1 ****  0
    7 C7         1.4727    -2.8383    -0.4429 C.3        1 ****  0
    8 C8         3.7051     1.3837     1.5251 C.ar       1 ****  0
    9 C9         4.1072     0.0470     1.5790 C.ar       1 ****  0
   10 C10        5.2198    -0.4096     2.2637 C.ar       1 ****  0
   11 C11        5.9780     0.5069     2.9807 C.ar       1 ****  0
   12 C12        5.5802     1.8418     2.9930 C.ar       1 ****  0
   13 C13        4.4686     2.2790     2.2684 C.ar       1 ****  0
   14 C14        5.6130    -1.8565     2.1440 C.2        1 ****  0
   15 C15        5.1406    -4.1074     1.1867 C.ar       1 ****  0
   16 C16        6.3939    -5.9466     1.2093 C.ar       1 ****  0
   17 C17        5.2675    -6.4406     0.5540 C.ar       1 ****  0
   18 C18        0.2741     1.5865    -2.1413 C.3        1 ****  0
   19 C19        0.4052     0.3175    -3.0661 C.ar       1 ****  0
   20 C20        0.4017    -0.9860    -2.6030 C.ar       1 ****  0
   21 C21        0.4815    -2.0812    -3.4520 C.ar       1 ****  0
   22 C22        0.5971    -1.8818    -4.8163 C.ar       1 ****  0
   23 C23        0.6309    -0.5822    -5.3038 C.ar       1 ****  0
   24 C24        0.5323     0.5048    -4.4385 C.ar       1 ****  0
   25 C25       -0.5229    -1.5537     2.2035 C.3        1 ****  0
   26 C26        0.1393    -0.4818     3.1254 C.ar       1 ****  0
   27 C27        0.5947     0.7415     2.6747 C.ar       1 ****  0
   28 C28        1.1666     1.6841     3.5170 C.ar       1 ****  0
   29 C29        1.3162     1.3942     4.8614 C.ar       1 ****  0
   30 C30        0.8778     0.1653     5.3365 C.ar       1 ****  0
   31 C31        0.2901    -0.7614     4.4788 C.ar       1 ****  0
   32 C32        2.8059    -2.9263    -1.4357 C.ar       1 ****  0
   33 C33        3.7943    -1.9572    -1.4752 C.ar       1 ****  0
   34 C34        4.9415    -1.9809    -2.2398 C.ar       1 ****  0
   35 C35        5.1533    -3.0921    -3.0371 C.ar       1 ****  0
   36 C36        4.1895    -4.1041    -3.0353 C.ar       1 ****  0
   37 C37        3.0308    -4.0302    -2.2538 C.ar       1 ****  0
   38 C38        5.8965    -0.8137    -2.1377 C.2        1 ****  0
   39 C39        6.4184     1.4424    -1.1853 C.ar       1 ****  0
   40 C40        8.3308     2.5798    -1.2388 C.ar       1 ****  0
   41 C41        7.5295     3.5030    -0.5697 C.ar       1 ****  0
   42 N1         1.2665     1.0101     0.1526 N.am       1 ****  0
   43 N2         0.8143    -1.4585     0.0005 N.am       1 ****  0
   44 N3         4.7772    -2.7551     1.4146 N.am       1 ****  0
   45 N4         6.2964    -4.6568     1.5471 N.ar       1 ****  0
   46 N5         5.5192     0.3648    -1.3958 N.am       1 ****  0
   47 N6         7.6920     1.4523    -1.5663 N.ar       1 ****  0
   48 O1         2.7270    -0.3564    -0.2759 O.2        1 ****  0
   49 O2        -1.4736     1.4302     1.4051 O.3        1 ****  0
   50 O3        -1.7976    -0.6849    -1.4368 O.3        1 ****  0
   51 O4         6.6672    -2.2622     2.6471 O.2        1 ****  0
   52 O5         7.0007    -0.8636    -2.6894 O.2        1 ****  0
   53 S1         4.1387    -5.2097     0.4153 S.3        1 ****  0
   54 S2         5.9881     2.8647    -0.4064 S.3        1 ****  0
   55 H1         1.9892     2.8408     1.1249 H          1 ****  0
   56 H2         2.8696     2.4272    -0.3283 H          1 ****  0
   57 H3         0.0530    -0.5426    -1.0199 H          1 ****  0
   58 H4        -2.1144     1.6261    -0.4863 H          1 ****  0
   59 H5        -2.6152    -0.5952     0.3905 H          1 ****  0
   60 H6         0.2640     0.4758     1.1365 H          1 ****  0
   61 H7         0.6514    -3.4792    -0.9005 H          1 ****  0
   62 H8         1.6974    -3.4289     0.5000 H          1 ****  0
   63 H9         3.5144    -0.6732     1.0549 H          1 ****  0
   64 H10        6.8512     0.1934     3.5136 H          1 ****  0
   65 H11        6.1387     2.5485     3.5706 H          1 ****  0
   66 H12        4.2010     3.3148     2.2851 H          1 ****  0
   67 H13        7.2559    -6.5437     1.4221 H          1 ****  0
   68 H14        5.1436    -7.4419     0.1977 H          1 ****  0
   69 H15       -0.5720     2.2384    -2.5844 H          1 ****  0
   70 H16        1.1655     2.2752    -2.3904 H          1 ****  0
   71 H17        0.3347    -1.1567    -1.5489 H          1 ****  0
   72 H18        0.4537    -3.0739    -3.0537 H          1 ****  0
   73 H19        0.6593    -2.7152    -5.4845 H          1 ****  0
   74 H20        0.7337    -0.4139    -6.3555 H          1 ****  0
   75 H21        0.5548     1.4983    -4.8352 H          1 ****  0
   76 H22       -0.0777    -2.5681     2.4922 H          1 ****  0
   77 H23       -1.5966    -1.7058     2.5788 H          1 ****  0
   78 H24        0.5027     0.9718     1.6338 H          1 ****  0
   79 H25        1.4895     2.6278     3.1297 H          1 ****  0
   80 H26        1.7625     2.1056     5.5245 H          1 ****  0
   81 H27        0.9928    -0.0725     6.3734 H          1 ****  0
   82 H28       -0.0492    -1.6993     4.8660 H          1 ****  0
   83 H29        3.6533    -1.1019    -0.8478 H          1 ****  0
   84 H30        6.0334    -3.1744    -3.6401 H          1 ****  0
   85 H31        4.3426    -4.9647    -3.6525 H          1 ****  0
   86 H32        2.3152    -4.8251    -2.2851 H          1 ****  0
   87 H33        9.3607     2.7569    -1.4687 H          1 ****  0
   88 H34        7.8463     4.4625    -0.2177 H          1 ****  0
   89 H35        3.9125    -2.4319     1.0626 H          1 ****  0
   90 H36        4.6052     0.4390    -1.0297 H          1 ****  0
   91 H37       -1.3769     2.4069     1.5066 H          1 ****  0
   92 H38       -2.4497    -0.0426    -1.8175 H          1 ****  0
@<TRIPOS>BOND
    1     1    42 am
    2     1    43 am
    3     1    48 2
    4     2     8 1
    5     2    42 1
    6     2    55 1
    7     2    56 1
    8     3     4 1
    9     3    18 1
   10     3    42 1
   11     3    57 1
   12     4     5 1
   13     4    49 1
   14     4    58 1
   15     5     6 1
   16     5    50 1
   17     5    59 1
   18     6    25 1
   19     6    43 1
   20     6    60 1
   21     7    32 1
   22     7    43 1
   23     7    61 1
   24     7    62 1
   25     8     9 ar
   26     8    13 ar
   27     9    10 ar
   28     9    63 1
   29    10    11 ar
   30    10    14 1
   31    11    12 ar
   32    11    64 1
   33    12    13 ar
   34    12    65 1
   35    13    66 1
   36    14    44 am
   37    14    51 2
   38    15    44 1
   39    15    45 ar
   40    15    53 ar
   41    16    17 ar
   42    16    45 ar
   43    16    67 1
   44    17    53 ar
   45    17    68 1
   46    18    19 1
   47    18    69 1
   48    18    70 1
   49    19    20 ar
   50    19    24 ar
   51    20    21 ar
   52    20    71 1
   53    21    22 ar
   54    21    72 1
   55    22    23 ar
   56    22    73 1
   57    23    24 ar
   58    23    74 1
   59    24    75 1
   60    25    26 1
   61    25    76 1
   62    25    77 1
   63    26    27 ar
   64    26    31 ar
   65    27    28 ar
   66    27    78 1
   67    28    29 ar
   68    28    79 1
   69    29    30 ar
   70    29    80 1
   71    30    31 ar
   72    30    81 1
   73    31    82 1
   74    32    33 ar
   75    32    37 ar
   76    33    34 ar
   77    33    83 1
   78    34    35 ar
   79    34    38 1
   80    35    36 ar
   81    35    84 1
   82    36    37 ar
   83    36    85 1
   84    37    86 1
   85    38    46 am
   86    38    52 2
   87    39    46 1
   88    39    47 ar
   89    39    54 ar
   90    40    41 ar
   91    40    47 ar
   92    40    87 1
   93    41    54 ar
   94    41    88 1
   95    44    89 1
   96    46    90 1
   97    49    91 1
   98    50    92 1
@<TRIPOS>SUBSTRUCTURE
1   ****   1
@<TRIPOS>MOLECULE
1qbu
79  84  1  0  0
SMALL
FORMAL_CHARGES
@<TRIPOS>ATOM
    1 C1         1.7439    -0.2423    -0.2390 C.2        1 ****  0
    2 C2         2.5037     1.9579     0.4978 C.3        1 ****  0
    3 C3         0.1243     0.5376    -0.7964 C.3        1 ****  0
    4 C4        -1.2587     1.1000     0.0848 C.3        1 ****  0
    5 C5        -1.5678    -0.3939    -0.0286 C.3        1 ****  0
    6 C6        -0.0320    -0.4685     0.8280 C.3        1 ****  0
    7 C7         1.6286    -2.7694    -0.3470 C.3        1 ****  0
    8 C8         3.7186     1.3631     1.4070 C.ar       1 ****  0
    9 C9         4.0408     0.0125     1.4993 C.ar       1 ****  0
   10 C10        5.1482    -0.4505     2.2227 C.ar       1 ****  0
   11 C11        5.9302     0.4593     2.9044 C.ar       1 ****  0
   12 C12        5.5964     1.8128     2.8718 C.ar       1 ****  0
   13 C13        4.5146     2.2603     2.1199 C.ar       1 ****  0
   14 C14        5.5238    -1.8995     2.1729 C.2        1 ****  0
   15 C15        5.0847    -4.1607     1.2610 C.ar       1 ****  0
   16 C16        6.4088    -5.9470     1.1853 C.ar       1 ****  0
   17 C17        5.2848    -6.4615     0.5414 C.ar       1 ****  0
   18 C18        0.2816     1.5892    -2.1703 C.3        1 ****  0
   19 C19        0.3673     0.3094    -3.0907 C.ar       1 ****  0
   20 C20        0.1916    -0.9898    -2.6461 C.ar       1 ****  0
   21 C21        0.1905    -2.0828    -3.5006 C.ar       1 ****  0
   22 C22        0.4192    -1.8899    -4.8511 C.ar       1 ****  0
   23 C23        0.6344    -0.6001    -5.3179 C.ar       1 ****  0
   24 C24        0.6006     0.4880    -4.4493 C.ar       1 ****  0
   25 C25       -0.3636    -1.5582     2.1648 C.3        1 ****  0
   26 C26        0.2438    -0.4753     3.0855 C.ar       1 ****  0
   27 C27        0.7393     0.7251     2.6180 C.ar       1 ****  0
   28 C28        1.2583     1.6931     3.4658 C.ar       1 ****  0
   29 C29        1.3168     1.4484     4.8267 C.ar       1 ****  0
   30 C30        0.8452     0.2372     5.3157 C.ar       1 ****  0
   31 C31        0.3072    -0.7142     4.4535 C.ar       1 ****  0
   32 C32        2.4824    -3.0800    -1.7311 C.3        1 ****  0
   33 C33        3.2677    -2.0369    -2.6180 C.3        1 ****  0
   34 C34        3.9696    -2.6621    -1.4529 C.3        1 ****  0
   35 N1         1.3795     1.0228     0.0491 N.am       1 ****  0
   36 N2         0.9572    -1.4225    -0.0849 N.am       1 ****  0
   37 N3         4.6826    -2.8253     1.5256 N.am       1 ****  0
   38 N4         6.2727    -4.6740     1.5688 N.ar       1 ****  0
   39 O1         2.8860    -0.3467    -0.6396 O.2        1 ****  0
   40 O2        -1.3708     1.4448     1.4431 O.3        1 ****  0
   41 O3        -1.8469    -0.6332    -1.3706 O.3        1 ****  0
   42 O4         6.6029    -2.2720     2.6527 O.2        1 ****  0
   43 S1         4.1043    -5.2738     0.4773 S.3        1 ****  0
   44 H1         2.0431     2.8190     1.0408 H          1 ****  0
   45 H2         2.9405     2.4345    -0.4100 H          1 ****  0
   46 H3         0.0948    -0.5314    -1.0503 H          1 ****  0
   47 H4        -2.0711     1.6444    -0.4224 H          1 ****  0
   48 H5        -2.5201    -0.5774     0.4939 H          1 ****  0
   49 H6         0.3845     0.5128     1.1052 H          1 ****  0
   50 H7         0.8370    -3.5725    -0.2330 H          1 ****  0
   51 H8         2.2962    -2.9938     0.5375 H          1 ****  0
   52 H9         3.4190    -0.7000     0.9987 H          1 ****  0
   53 H10        6.7866     0.1286     3.4541 H          1 ****  0
   54 H11        6.1786     2.5149     3.4312 H          1 ****  0
   55 H12        4.2902     3.3060     2.0879 H          1 ****  0
   56 H13        7.2975    -6.5178     1.3566 H          1 ****  0
   57 H14        5.1910    -7.4535     0.1515 H          1 ****  0
   58 H15        1.1722     2.2650    -2.4525 H          1 ****  0
   59 H16       -0.5710     2.2478    -2.5889 H          1 ****  0
   60 H17        0.0508    -1.1582    -1.5989 H          1 ****  0
   61 H18        0.0142    -3.0664    -3.1182 H          1 ****  0
   62 H19        0.4300    -2.7210    -5.5249 H          1 ****  0
   63 H20        0.8286    -0.4401    -6.3579 H          1 ****  0
   64 H21        0.7563     1.4746    -4.8330 H          1 ****  0
   65 H22        0.1506    -2.5451     2.4201 H          1 ****  0
   66 H23       -1.4167    -1.7811     2.5537 H          1 ****  0
   67 H24        0.7227     0.9158     1.5653 H          1 ****  0
   68 H25        1.6109     2.6226     3.0701 H          1 ****  0
   69 H26        1.7198     2.1823     5.4930 H          1 ****  0
   70 H27        0.8959     0.0333     6.3648 H          1 ****  0
   71 H28       -0.0610    -1.6383     4.8475 H          1 ****  0
   72 H29        2.5755    -4.1342    -2.0028 H          1 ****  0
   73 H30        2.9754    -1.1888    -2.3626 H          1 ****  0
   74 H31        3.5323    -2.4854    -3.3954 H          1 ****  0
   75 H32        4.5131    -3.3507    -1.7730 H          1 ****  0
   76 H33        3.9561    -2.0543    -0.7401 H          1 ****  0
   77 H34        3.7949    -2.5296     1.2261 H          1 ****  0
   78 H35       -1.3046     2.4228     1.5430 H          1 ****  0
   79 H36       -2.5090     0.0260    -1.6986 H          1 ****  0
@<TRIPOS>BOND
    1     1    35 am
    2     1    36 am
    3     1    39 2
    4     2     8 1
    5     2    35 1
    6     2    44 1
    7     2    45 1
    8     3     4 1
    9     3    18 1
   10     3    35 1
   11     3    46 1
   12     4     5 1
   13     4    40 1
   14     4    47 1
   15     5     6 1
   16     5    41 1
   17     5    48 1
   18     6    25 1
   19     6    36 1
   20     6    49 1
   21     7    32 1
   22     7    36 1
   23     7    50 1
   24     7    51 1
   25     8     9 ar
   26     8    13 ar
   27     9    10 ar
   28     9    52 1
   29    10    11 ar
   30    10    14 1
   31    11    12 ar
   32    11    53 1
   33    12    13 ar
   34    12    54 1
   35    13    55 1
   36    14    37 am
   37    14    42 2
   38    15    37 1
   39    15    38 ar
   40    15    43 ar
   41    16    17 ar
   42    16    38 ar
   43    16    56 1
   44    17    43 ar
   45    17    57 1
   46    18    19 1
   47    18    58 1
   48    18    59 1
   49    19    20 ar
   50    19    24 ar
   51    20    21 ar
   52    20    60 1
   53    21    22 ar
   54    21    61 1
   55    22    23 ar
   56    22    62 1
   57    23    24 ar
   58    23    63 1
   59    24    64 1
   60    25    26 1
   61    25    65 1
   62    25    66 1
   63    26    27 ar
   64    26    31 ar
   65    27    28 ar
   66    27    67 1
   67    28    29 ar
   68    28    68 1
   69    29    30 ar
   70    29    69 1
   71    30    31 ar
   72    30    70 1
   73    31    71 1
   74    32    33 1
   75    32    34 1
   76    32    72 1
   77    33    34 1
   78    33    73 1
   79    33    74 1
   80    34    75 1
   81    34    76 1
   82    37    77 1
   83    40    78 1
   84    41    79 1
@<TRIPOS>SUBSTRUCTURE
1   ****   1
@<TRIPOS>MOLECULE
1qcf
40  42  1  0  0
SMALL
FORMAL_CHARGES
@<TRIPOS>ATOM
    1 N1        -0.2794     2.5947    -0.0061 N.ar       1 ****  0
    2 C1         1.2376    -0.6207     0.0114 C.ar       1 ****  0
    3 N2         1.1911     0.7041     0.0078 N.ar       1 ****  0
    4 C2         0.0088     1.2980     0.0005 C.ar       1 ****  0
    5 C3        -1.1643     0.5819    -0.0010 C.ar       1 ****  0
    6 C4        -1.0911    -0.8190     0.0027 C.ar       1 ****  0
    7 N3         0.1275    -1.3533     0.0085 N.ar       1 ****  0
    8 N4        -1.5442     2.7529    -0.0080 N.ar       1 ****  0
    9 C5        -2.1629     1.5676    -0.0055 C.ar       1 ****  0
   10 N5        -2.1649    -1.7813    -0.0005 N.pl3      1 ****  0
   11 C6        -3.6711     1.4813    -0.0038 C.ar       1 ****  0
   12 C7        -4.3489     0.2761    -0.0006 C.ar       1 ****  0
   13 C8        -5.7335     0.2106     0.0011 C.ar       1 ****  0
   14 C9        -6.4711     1.3829     0.0001 C.ar       1 ****  0
   15 C10       -5.8117     2.6070    -0.0024 C.ar       1 ****  0
   16 C11       -4.4194     2.6556    -0.0045 C.ar       1 ****  0
   17 C12       -7.9706     1.3168     0.0015 C.3        1 ****  0
   18 C13        0.6730     3.7287    -0.0014 C.3        1 ****  0
   19 C14        2.1583     3.3154    -0.1282 C.3        1 ****  0
   20 C15        0.3354     4.6601    -1.1772 C.3        1 ****  0
   21 C16        0.4997     4.5144     1.3091 C.3        1 ****  0
   22 H1         2.1885    -1.1112     0.0168 H          1 ****  0
   23 H2        -3.0988    -1.5356    -0.0062 H          1 ****  0
   24 H3        -1.9252    -2.7797     0.0020 H          1 ****  0
   25 H4        -3.7870    -0.6345     0.0007 H          1 ****  0
   26 H5        -6.2285    -0.7380     0.0031 H          1 ****  0
   27 H6        -6.3762     3.5160    -0.0028 H          1 ****  0
   28 H7        -3.9212     3.6026    -0.0066 H          1 ****  0
   29 H8        -8.2156     0.7118     0.8757 H          1 ****  0
   30 H9        -8.2172     0.7094    -0.8705 H          1 ****  0
   31 H10       -8.4092     2.2134     0.0007 H          1 ****  0
   32 H11        2.2525     2.7536    -1.0459 H          1 ****  0
   33 H12        2.3712     2.6469     0.6930 H          1 ****  0
   34 H13        2.7828     4.1392    -0.1202 H          1 ****  0
   35 H14       -0.6593     5.0344    -1.0715 H          1 ****  0
   36 H15        0.4236     4.1291    -2.0996 H          1 ****  0
   37 H16        1.0252     5.4905    -1.1817 H          1 ****  0
   38 H17        0.7029     3.8793     2.1436 H          1 ****  0
   39 H18       -0.4976     4.8907     1.3786 H          1 ****  0
   40 H19        1.1905     5.3432     1.3206 H          1 ****  0
@<TRIPOS>BOND
    1     1     4 ar
    2     1     8 ar
    3     1    18 1
    4     2     3 ar
    5     2     7 ar
    6     2    22 1
    7     3     4 ar
    8     4     5 ar
    9     5     6 ar
   10     5     9 ar
   11     6     7 ar
   12     6    10 1
   13     8     9 ar
   14     9    11 1
   15    10    23 1
   16    10    24 1
   17    11    12 ar
   18    11    16 ar
   19    12    13 ar
   20    12    25 1
   21    13    14 ar
   22    13    26 1
   23    14    15 ar
   24    14    17 1
   25    15    16 ar
   26    15    27 1
   27    16    28 1
   28    17    29 1
   29    17    30 1
   30    17    31 1
   31    18    19 1
   32    18    20 1
   33    18    21 1
   34    19    32 1
   35    19    33 1
   36    19    34 1
   37    20    35 1
   38    20    36 1
   39    20    37 1
   40    21    38 1
   41    21    39 1
   42    21    40 1
@<TRIPOS>SUBSTRUCTURE
1   ****   1
@<TRIPOS>MOLECULE
1qpe
37  39  1  0  0
SMALL
FORMAL_CHARGES
@<TRIPOS>ATOM
    1 C1         1.1293    -0.6415     0.0005 C.ar       1 ****  0
    2 N1         1.2070     0.6779     0.0088 N.ar       1 ****  0
    3 C2         0.0828     1.3815     0.0122 C.ar       1 ****  0
    4 N2        -1.1065     0.7862     0.0078 N.ar       1 ****  0
    5 C3        -1.2542    -0.5349     0.0018 C.ar       1 ****  0
    6 C4        -0.0762    -1.3013    -0.0013 C.ar       1 ****  0
    7 C5         0.2768    -2.6572    -0.0058 C.ar       1 ****  0
    8 N3         1.6137    -2.7147    -0.0087 N.ar       1 ****  0
    9 N4         2.1088    -1.5409    -0.0068 N.ar       1 ****  0
   10 C6        -0.5526    -3.9195    -0.0043 C.ar       1 ****  0
   11 C7        -1.9354    -3.8978    -0.0017 C.ar       1 ****  0
   12 C8        -2.6897    -5.0602    -0.0002 C.ar       1 ****  0
   13 C9        -2.0494    -6.2881    -0.0008 C.ar       1 ****  0
   14 C10       -0.6595    -6.3357    -0.0027 C.ar       1 ****  0
   15 C11        0.0844    -5.1573    -0.0045 C.ar       1 ****  0
   16 C12        3.5669    -1.2820    -0.0021 C.3        1 ****  0
   17 C13        3.9513     0.2111    -0.1293 C.3        1 ****  0
   18 C14        4.2052    -2.0402    -1.1775 C.3        1 ****  0
   19 C15        4.1608    -1.8243     1.3088 C.3        1 ****  0
   20 N5        -2.6256    -0.9825    -0.0002 N.pl3      1 ****  0
   21 Cl1       -2.9855    -7.7327     0.0006 Cl         1 ****  0
   22 H1         0.1337     2.4503     0.0185 H          1 ****  0
   23 H2        -2.4387    -2.9535    -0.0008 H          1 ****  0
   24 H3        -3.7585    -5.0094     0.0013 H          1 ****  0
   25 H4        -0.1590    -7.2814    -0.0027 H          1 ****  0
   26 H5         1.1534    -5.2042    -0.0062 H          1 ****  0
   27 H6         3.4782     0.7296     0.6917 H          1 ****  0
   28 H7         3.5116     0.5729    -1.0472 H          1 ****  0
   29 H8         4.9767     0.3405    -0.1212 H          1 ****  0
   30 H9         3.7893    -1.6990    -2.1001 H          1 ****  0
   31 H10        4.0328    -3.0888    -1.0714 H          1 ****  0
   32 H11        5.2692    -1.8572    -1.1821 H          1 ****  0
   33 H12        3.9889    -2.8762     1.3784 H          1 ****  0
   34 H13        3.7120    -1.3309     2.1431 H          1 ****  0
   35 H14        5.2239    -1.6395     1.3204 H          1 ****  0
   36 H15       -3.3689    -0.2739     0.0024 H          1 ****  0
   37 H16       -2.8825    -1.9129    -0.0052 H          1 ****  0
@<TRIPOS>BOND
    1     1     2 ar
    2     1     6 ar
    3     1     9 ar
    4     2     3 ar
    5     3     4 ar
    6     3    22 1
    7     4     5 ar
    8     5     6 ar
    9     5    20 1
   10     6     7 ar
   11     7     8 ar
   12     7    10 1
   13     8     9 ar
   14     9    16 1
   15    10    11 ar
   16    10    15 ar
   17    11    12 ar
   18    11    23 1
   19    12    13 ar
   20    12    24 1
   21    13    14 ar
   22    13    21 1
   23    14    15 ar
   24    14    25 1
   25    15    26 1
   26    16    17 1
   27    16    18 1
   28    16    19 1
   29    17    27 1
   30    17    28 1
   31    17    29 1
   32    18    30 1
   33    18    31 1
   34    18    32 1
   35    19    33 1
   36    19    34 1
   37    19    35 1
   38    20    36 1
   39    20    37 1
@<TRIPOS>SUBSTRUCTURE
1   ****   1
@<TRIPOS>MOLECULE
1qpq
15  15  1  0  0
SMALL
FORMAL_CHARGES
@<TRIPOS>ATOM
    1 N1         1.1826    -0.6352    -0.0003 N.ar       1 ****  0
    2 C1         1.2257     0.6946    -0.0001 C.ar       1 ****  0
    3 C2         0.0254     1.4246     0.0001 C.ar       1 ****  0
    4 C3        -1.1747     0.7252     0.0000 C.ar       1 ****  0
    5 C4        -1.1701    -0.6603    -0.0002 C.ar       1 ****  0
    6 C5         0.0472    -1.3221    -0.0004 C.ar       1 ****  0
    7 C6         2.5963     1.2837    -0.0001 C.2        1 ****  0.0000
    8 O1         3.5636     0.5145    -0.0002 O.co2      1 ****  -0.50
    9 O2         2.8349     2.6026     0.0000 O.co2      1 ****  -0.50
   10 C7        -0.0949     2.9120     0.0003 C.2        1 ****  0.0000
   11 O3        -1.2272     3.4073     0.0005 O.co2      1 ****  -0.50
   12 O4         0.9595     3.7402     0.0004 O.co2      1 ****  -0.50
   13 H1        -2.1033     1.2567     0.0002 H          1 ****  0
   14 H2        -2.0889    -1.2086    -0.0002 H          1 ****  0
   15 H3         0.0718    -2.3918    -0.0005 H          1 ****  0
@<TRIPOS>BOND
    1     1     2 ar
    2     1     6 ar
    3     2     3 ar
    4     2     7 1
    5     3     4 ar
    6     3    10 1
    7     4     5 ar
    8     4    13 1
    9     5     6 ar
   10     5    14 1
   11     6    15 1
   12     7     8 ar
   13     7     9 ar
   14    10    11 ar
   15    10    12 ar
@<TRIPOS>SUBSTRUCTURE
1   ****   1
@<TRIPOS>MOLECULE
1rds
63  67  1  0  0
SMALL
FORMAL_CHARGES
@<TRIPOS>ATOM
    1 F1         2.3217     4.6303     0.8731 F          1 ****  0
    2 P1         2.7327     5.2051     3.2971 P.3        1 ****  0
    3 O1         1.8021     5.6803     2.3970 O.2        1 ****  0
    4 O2         4.1226     5.6310     2.8624 O.2        1 ****  -1
    5 O3         5.3335     1.2499     2.6390 O.3        1 ****  0
    6 C1         5.4254     2.6717     2.5208 C.3        1 ****  0
    7 C2         4.2582     3.1898     1.6643 C.3        1 ****  0
    8 O4         4.2309     2.6183     0.3335 O.3        1 ****  0
    9 C3         2.9041     2.8527     2.2478 C.3        1 ****  0
   10 O5         2.6313     3.6321     3.4542 O.3        1 ****  0
   11 C4         2.0693     3.2888     1.0814 C.3        1 ****  0
   12 C5         2.8128     2.4847     0.0006 C.3        1 ****  0
   13 N1         2.4016     1.1132     0.0001 N.ar       1 ****  0
   14 C6         3.2162     0.0549    -0.0001 C.ar       1 ****  0
   15 N2         2.4794    -1.0647    -0.0003 N.ar       1 ****  0
   16 C7         1.2103    -0.6809    -0.0002 C.ar       1 ****  0
   17 C8         0.0182    -1.4446    -0.0004 C.2        1 ****  0
   18 O6         0.0274    -2.6806    -0.0006 O.2        1 ****  0
   19 N3        -1.1793    -0.7099    -0.0003 N.am       1 ****  0
   20 C9        -1.1459     0.7387    -0.0000 C.2        1 ****  0
   21 N4        -2.3781     1.4608     0.0001 N.3        1 ****  0
   22 N5        -0.0375     1.3898     0.0001 N.2        1 ****  0
   23 C10        1.1554     0.6836    -0.0000 C.ar       1 ****  0
   24 O7         2.4434     5.8523     4.6717 O.3        1 ****  0
   25 C11        2.5443     7.2716     4.5445 C.3        1 ****  0
   26 C12        2.2418     7.9334     5.8991 C.3        1 ****  0
   27 O8         0.9325     7.5542     6.3706 O.3        1 ****  0
   28 C13        3.1957     7.4260     6.9532 C.3        1 ****  0
   29 O9         4.5011     7.9883     6.8063 O.3        1 ****  0
   30 C14        2.4670     7.9614     8.1483 C.3        1 ****  0
   31 O10        2.3948     9.3827     8.0006 O.3        1 ****  0
   32 C15        1.0769     7.3675     7.8238 C.3        1 ****  0
   33 N6         1.1544     5.9466     8.0543 N.am       1 ****  0
   34 C16        1.7671     5.4508     9.2012 C.2        1 ****  0
   35 O11        2.2587     6.2302    10.0261 O.2        1 ****  0
   36 N7         1.8269     4.0711     9.4210 N.am       1 ****  0
   37 C17        1.3246     3.2584     8.5795 C.2        1 ****  0
   38 N8         1.3957     1.8524     8.8218 N.3        1 ****  0
   39 C18        0.6738     3.7553     7.3638 C.2        1 ****  0
   40 C19        0.6050     5.0633     7.1335 C.2        1 ****  0
   41 H1         5.3776     0.8391     1.7394 H          1 ****  0
   42 H2         6.3784     2.9402     2.0417 H          1 ****  0
   43 H3         5.3761     3.1270     3.5210 H          1 ****  0
   44 H4         4.4346     4.2752     1.6370 H          1 ****  0
   45 H5         2.7536     1.8160     2.5832 H          1 ****  0
   46 H6         0.9804     3.1480     1.1484 H          1 ****  0
   47 H7         2.5962     2.8589    -1.0109 H          1 ****  0
   48 H8         4.3154     0.0956    -0.0001 H          1 ****  0
   49 H9        -2.0838    -1.2025    -0.0004 H          1 ****  0
   50 H10       -3.2797     0.9628    -0.0000 H          1 ****  0
   51 H11       -2.3628     2.4907     0.0002 H          1 ****  0
   52 H12        1.8212     7.6257     3.7950 H          1 ****  0
   53 H13        3.5624     7.5395     4.2257 H          1 ****  0
   54 H14        2.3252     9.0196     5.7468 H          1 ****  0
   55 H15        3.3992     6.3450     6.9568 H          1 ****  0
   56 H16        4.4268     8.9733     6.8727 H          1 ****  0
   57 H17        2.8815     7.7360     9.1419 H          1 ****  0
   58 H18        1.8958     9.6212     7.1795 H          1 ****  0
   59 H19        0.2637     7.8191     8.4110 H          1 ****  0
   60 H20        1.8516     1.4966     9.6741 H          1 ****  0
   61 H21        0.9900     1.1931     8.1423 H          1 ****  0
   62 H22        0.2424     3.0464     6.6418 H          1 ****  0
   63 H23        0.1178     5.4420     6.2230 H          1 ****  0
@<TRIPOS>BOND
    1     2     3 2
    2     2     4 1
    3     2    10 1
    4     2    24 1
    5     5     6 1
    6     5    41 1
    7     6    42 1
    8     6    43 1
    9     7     6 1
   10     7     8 1
   11     7     9 1
   12     7    44 1
   13     9    10 1
   14     9    11 1
   15     9    45 1
   16    11     1 1
   17    11    12 1
   18    11    46 1
   19    12     8 1
   20    12    13 1
   21    12    47 1
   22    13    14 ar
   23    13    23 ar
   24    14    15 ar
   25    14    48 1
   26    15    16 ar
   27    16    17 1
   28    16    23 ar
   29    17    18 2
   30    17    19 am
   31    19    20 1
   32    19    49 1
   33    20    21 1
   34    20    22 2
   35    21    50 1
   36    21    51 1
   37    22    23 1
   38    24    25 1
   39    25    52 1
   40    25    53 1
   41    26    25 1
   42    26    27 1
   43    26    28 1
   44    26    54 1
   45    28    29 1
   46    28    30 1
   47    28    55 1
   48    29    56 1
   49    30    31 1
   50    30    32 1
   51    30    57 1
   52    31    58 1
   53    32    27 1
   54    32    33 1
   55    32    59 1
   56    33    34 am
   57    33    40 1
   58    34    35 2
   59    34    36 am
   60    36    37 2
   61    37    38 1
   62    37    39 1
   63    38    60 1
   64    38    61 1
   65    39    40 2
   66    39    62 1
   67    40    63 1
@<TRIPOS>SUBSTRUCTURE
1   ****   1
@<TRIPOS>MOLECULE
1rne
114  116  1  0  0
SMALL
FORMAL_CHARGES
@<TRIPOS>ATOM
    1 C1         2.2993    -2.0167    -4.8128 C.3        1 ****  0
    2 C2         3.4518    -1.3343    -5.5694 C.3        1 ****  0
    3 C3         1.0403    -1.1342    -4.8875 C.3        1 ****  0
    4 C4         2.0062    -3.3879    -5.4466 C.3        1 ****  0
    5 C5         3.1135    -0.6141    -2.3545 C.3        1 ****  0
    6 C6         3.5688    -0.7377    -0.8762 C.3        1 ****  0
    7 C7         2.5102    -1.4496    -0.0036 C.3        1 ****  0
    8 C8         1.2084    -0.6974    -0.0001 C.ar       1 ****  0
    9 C9         0.0043    -1.3930    -0.0003 C.ar       1 ****  0
   10 C10       -1.1987    -0.6980    -0.0003 C.ar       1 ****  0
   11 C11       -1.1983     0.6923    -0.0001 C.ar       1 ****  0
   12 C12        0.0048     1.3871     0.0001 C.ar       1 ****  0
   13 C13        1.2089     0.6915     0.0001 C.ar       1 ****  0
   14 C14        4.8657    -1.4846    -0.7981 C.2        1 ****  0
   15 C15        7.1694    -1.8563    -1.5226 C.3        1 ****  0
   16 C16        7.0535    -3.1109    -2.4072 C.3        1 ****  0
   17 C17        6.7687    -2.7129    -3.8368 C.ar       1 ****  0
   18 C18        6.6251    -3.6098    -4.8682 C.ar       1 ****  0
   19 C19        6.3236    -1.5832    -5.5646 C.ar       1 ****  0
   20 C20        8.3508    -1.0425    -1.9587 C.2        1 ****  0
   21 C21       10.8709    -1.4234    -1.6674 C.3        1 ****  0
   22 C22       11.9046    -2.0609    -2.7769 C.3        1 ****  0
   23 C23       13.2278    -1.6225    -3.4935 C.3        1 ****  0
   24 C24       12.9493    -0.9542    -4.8496 C.3        1 ****  0
   25 C25       14.2750    -0.7717    -5.6122 C.3        1 ****  0
   26 C26       15.2271     0.1115    -4.7835 C.3        1 ****  0
   27 C27       15.5039    -0.5627    -3.4261 C.3        1 ****  0
   28 C28       14.1782    -0.7452    -2.6634 C.3        1 ****  0
   29 C29       11.9596    -0.3410    -1.7925 C.3        1 ****  0
   30 C30       11.3829    -0.1949    -0.3167 C.3        1 ****  0
   31 C31       11.5931     1.0294     0.6412 C.3        1 ****  0
   32 C32       10.2851     1.8315     0.9804 C.3        1 ****  0
   33 C33        9.6713     2.6068    -0.2068 C.3        1 ****  0
   34 C34        9.2353     0.8890     1.6021 C.3        1 ****  0
   35 C35       12.1718     0.5439     1.9360 C.2        1 ****  0
   36 C36       12.8053     0.9995     4.2683 C.3        1 ****  0
   37 C37       12.9262     2.2305     5.1867 C.3        1 ****  0
   38 C38       13.5816     1.8273     6.5191 C.3        1 ****  0
   39 C39       13.7025     3.0680     7.4244 C.3        1 ****  0
   40 S1         2.7651    -2.2429    -3.0852 S.O2       1 ****  0
   41 O1         1.6186    -2.9185    -2.3576 O.2        1 ****  0
   42 O2         3.9969    -3.1217    -3.0093 O.2        1 ****  0
   43 O3         4.9794    -2.4353    -0.0168 O.2        1 ****  0
   44 O4         8.2251     0.1716    -2.1537 O.2        1 ****  0
   45 O5        12.0302     1.0913    -2.2891 O.3        1 ****  0
   46 O6        12.6611    -0.5882     2.0163 O.2        1 ****  0
   47 N1         5.9549    -1.0941    -1.5805 N.am       1 ****  0
   48 N2         6.5847    -1.4853    -4.2642 N.ar       1 ****  0
   49 N3         6.3475    -2.8645    -5.9309 N.ar       1 ****  0
   50 N4         9.5806    -1.6910    -2.1781 N.am       1 ****  0
   51 N5        12.1973     1.4035     3.0366 N.am       1 ****  0
   52 H1         4.3524    -1.9634    -5.5127 H          1 ****  0
   53 H2         3.6605    -0.3543    -5.1155 H          1 ****  0
   54 H3         3.1684    -1.1960    -6.6232 H          1 ****  0
   55 H4         1.2484    -0.1539    -4.4339 H          1 ****  0
   56 H5         0.2149    -1.6210    -4.3474 H          1 ****  0
   57 H6         0.7540    -0.9947    -5.9403 H          1 ****  0
   58 H7         1.1811    -3.8749    -4.9063 H          1 ****  0
   59 H8         2.9049    -4.0197    -5.3900 H          1 ****  0
   60 H9         1.7219    -3.2514    -6.5005 H          1 ****  0
   61 H10        2.2070     0.0073    -2.4005 H          1 ****  0
   62 H11        3.9055    -0.1176    -2.9343 H          1 ****  0
   63 H12        3.6998     0.2825    -0.4863 H          1 ****  0
   64 H13        2.3403    -2.4634    -0.3952 H          1 ****  0
   65 H14        2.8837    -1.5293     1.0279 H          1 ****  0
   66 H15        0.0042    -2.4930    -0.0005 H          1 ****  0
   67 H16       -2.1515    -1.2478    -0.0004 H          1 ****  0
   68 H17       -2.1508     1.2424    -0.0001 H          1 ****  0
   69 H18        0.0048     2.4871     0.0003 H          1 ****  0
   70 H19        2.1617     1.2413     0.0003 H          1 ****  0
   71 H20        7.3239    -2.1557    -0.4755 H          1 ****  0
   72 H21        7.9971    -3.6748    -2.3669 H          1 ****  0
   73 H22        6.2360    -3.7465    -2.0362 H          1 ****  0
   74 H23        6.7194    -4.7048    -4.8230 H          1 ****  0
   75 H24        6.1190    -0.7358    -6.2356 H          1 ****  0
   76 H25       11.0003    -1.8531    -0.6631 H          1 ****  0
   77 H26       11.5129    -2.9497    -3.2932 H          1 ****  0
   78 H27       12.1591    -2.3950    -1.7602 H          1 ****  0
   79 H28       13.7607    -2.5729    -3.6444 H          1 ****  0
   80 H29       12.2719    -1.5893    -5.4394 H          1 ****  0
   81 H30       12.4825     0.0284    -4.6866 H          1 ****  0
   82 H31       14.0785    -0.2890    -6.5810 H          1 ****  0
   83 H32       14.7400    -1.7544    -5.7799 H          1 ****  0
   84 H33       16.1742     0.2408    -5.3278 H          1 ****  0
   85 H34       14.7638     1.0949    -4.6157 H          1 ****  0
   86 H35       16.1829     0.0683    -2.8338 H          1 ****  0
   87 H36       15.9687    -1.5456    -3.5928 H          1 ****  0
   88 H37       14.3762    -1.2303    -1.6962 H          1 ****  0
   89 H38       13.7153     0.2380    -2.4931 H          1 ****  0
   90 H39       12.8951    -0.9186    -1.8278 H          1 ****  0
   91 H40       10.5746    -0.8264     0.0807 H          1 ****  0
   92 H41       12.3048    -0.7944    -0.3396 H          1 ****  0
   93 H42       12.2625     1.7144     0.1002 H          1 ****  0
   94 H43       10.5909     2.6026     1.7029 H          1 ****  0
   95 H44        9.4621     1.8719    -0.9982 H          1 ****  0
   96 H45       10.4449     3.2960    -0.5764 H          1 ****  0
   97 H46        8.7597     3.1500     0.0830 H          1 ****  0
   98 H47        9.6435     0.4471     2.5230 H          1 ****  0
   99 H48        8.9984     0.0869     0.8875 H          1 ****  0
  100 H49        8.3216     1.4544     1.8379 H          1 ****  0
  101 H50       12.1800     0.2370     4.7558 H          1 ****  0
  102 H51       13.8064     0.5893     4.0697 H          1 ****  0
  103 H52       11.9249     2.6419     5.3823 H          1 ****  0
  104 H53       13.5432     2.9958     4.6931 H          1 ****  0
  105 H54       14.5832     1.4153     6.3268 H          1 ****  0
  106 H55       12.9614     1.0684     7.0185 H          1 ****  0
  107 H56       12.7019     3.4812     7.6192 H          1 ****  0
  108 H57       14.3226     3.8283     6.9270 H          1 ****  0
  109 H58       14.1710     2.7817     8.3776 H          1 ****  0
  110 H59       11.7315     1.4009    -3.1807 H          1 ****  0
  111 H60        5.8871    -0.2682    -2.1923 H          1 ****  0
  112 H61        6.6329    -0.6213    -3.7055 H          1 ****  0
  113 H62        9.6535    -2.6990    -1.9789 H          1 ****  0
  114 H63       11.7736     2.3393     2.9612 H          1 ****  0
@<TRIPOS>BOND
    1     1     2 1
    2     1     3 1
    3     1     4 1
    4     1    40 1
    5     2    52 1
    6     2    53 1
    7     2    54 1
    8     3    55 1
    9     3    56 1
   10     3    57 1
   11     4    58 1
   12     4    59 1
   13     4    60 1
   14     5     6 1
   15     5    40 1
   16     5    61 1
   17     5    62 1
   18     6     7 1
   19     6    14 1
   20     6    63 1
   21     7     8 1
   22     7    64 1
   23     7    65 1
   24     8     9 ar
   25     8    13 ar
   26     9    10 ar
   27     9    66 1
   28    10    11 ar
   29    10    67 1
   30    11    12 ar
   31    11    68 1
   32    12    13 ar
   33    12    69 1
   34    13    70 1
   35    14    43 2
   36    14    47 am
   37    15    16 1
   38    15    20 1
   39    15    47 1
   40    15    71 1
   41    16    17 1
   42    16    72 1
   43    16    73 1
   44    17    18 ar
   45    17    48 ar
   46    18    49 ar
   47    18    74 1
   48    19    48 ar
   49    19    49 ar
   50    19    75 1
   51    20    44 2
   52    20    50 am
   53    21    22 1
   54    21    29 1
   55    21    50 1
   56    21    76 1
   57    22    23 1
   58    22    77 1
   59    22    78 1
   60    23    24 1
   61    23    28 1
   62    23    79 1
   63    24    25 1
   64    24    80 1
   65    24    81 1
   66    25    26 1
   67    25    82 1
   68    25    83 1
   69    26    27 1
   70    26    84 1
   71    26    85 1
   72    27    28 1
   73    27    86 1
   74    27    87 1
   75    28    88 1
   76    28    89 1
   77    29    30 1
   78    29    45 1
   79    29    90 1
   80    30    31 1
   81    30    91 1
   82    30    92 1
   83    31    32 1
   84    31    35 1
   85    31    93 1
   86    32    33 1
   87    32    34 1
   88    32    94 1
   89    33    95 1
   90    33    96 1
   91    33    97 1
   92    34    98 1
   93    34    99 1
   94    34   100 1
   95    35    46 2
   96    35    51 am
   97    36    37 1
   98    36    51 1
   99    36   101 1
  100    36   102 1
  101    37    38 1
  102    37   103 1
  103    37   104 1
  104    38    39 1
  105    38   105 1
  106    38   106 1
  107    39   107 1
  108    39   108 1
  109    39   109 1
  110    40    41 2
  111    40    42 2
  112    45   110 1
  113    47   111 1
  114    48   112 1
  115    50   113 1
  116    51   114 1
@<TRIPOS>SUBSTRUCTURE
1   ****   1
@<TRIPOS>MOLECULE
1rnt
36  38  1  0  0
SMALL
FORMAL_CHARGES
@<TRIPOS>ATOM
    1 P1        -1.4640    -1.0017    -2.4234 P.3        1 ****  0
    2 O1        -1.4793    -1.5786    -3.8223 O.2        1 ****  -1
    3 O2        -0.0271    -0.7374    -2.0483 O.2        1 ****  -1
    4 O3        -2.1232     0.2108    -2.4460 O.2        1 ****  0
    5 O4         1.5759    -5.5520    -2.5955 O.3        1 ****  0
    6 C1         0.3155    -6.1878    -2.3877 C.3        1 ****  0
    7 C2        -0.6276    -5.2511    -1.6052 C.3        1 ****  0
    8 O5        -0.1256    -4.8930    -0.2690 O.3        1 ****  0
    9 C3        -0.3219    -3.8051    -1.3524 C.3        1 ****  0
   10 O6         0.3207    -3.1566    -2.4973 O.3        1 ****  0
   11 C4        -0.8504    -2.6544    -1.3057 C.3        1 ****  0
   12 O7        -2.2418    -1.9770    -1.4007 O.3        1 ****  0
   13 C5        -0.7597    -3.5971     0.0513 C.3        1 ****  0
   14 N1         0.2727    -2.6250     0.2107 N.ar       1 ****  0
   15 C6         1.5902    -2.8340     0.1394 C.ar       1 ****  0
   16 N2         2.2186    -1.6515     0.2261 N.ar       1 ****  0
   17 C7         1.2754    -0.7297     0.3514 C.ar       1 ****  0
   18 C8         1.3512     0.6826     0.3673 C.2        1 ****  0
   19 O8         2.4307     1.2802     0.2971 O.2        1 ****  0
   20 N3         0.1153     1.3636     0.3475 N.am       1 ****  0
   21 C9        -1.1230     0.6210     0.4045 C.2        1 ****  0
   22 N4        -2.3687     1.3167     0.3815 N.3        1 ****  0
   23 N5        -1.1357    -0.6571     0.4446 N.2        1 ****  0
   24 C10        0.0551    -1.3440     0.3873 C.ar       1 ****  0
   25 H1         1.9354    -5.2394    -1.7317 H          1 ****  0
   26 H2        -0.1258    -6.4254    -3.3384 H          1 ****  0
   27 H3         0.4594    -7.0929    -1.8317 H          1 ****  0
   28 H4        -1.6020    -5.7432    -1.4743 H          1 ****  0
   29 H5         0.2352    -3.7100    -0.4104 H          1 ****  0
   30 H6         0.8488    -3.5639    -3.2183 H          1 ****  0
   31 H7        -0.0005    -1.9688    -1.4176 H          1 ****  0
   32 H8        -1.3534    -3.6079     0.9762 H          1 ****  0
   33 H9         2.0656    -3.7864     0.0311 H          1 ****  0
   34 H10        0.0942     2.3535     0.2804 H          1 ****  0
   35 H11       -2.3846     2.3413     0.3079 H          1 ****  0
   36 H12       -3.2529     0.7852     0.3914 H          1 ****  0
@<TRIPOS>BOND
    1     1     2 1
    2     1     3 1
    3     1     4 2
    4     1    12 1
    5     5     6 1
    6     5    25 1
    7     6    26 1
    8     6    27 1
    9     7     6 1
   10     7     8 1
   11     7     9 1
   12     7    28 1
   13     9    10 1
   14     9    11 1
   15     9    29 1
   16    10    30 1
   17    11    12 1
   18    11    13 1
   19    11    31 1
   20    13     8 1
   21    13    14 1
   22    13    32 1
   23    14    15 ar
   24    14    24 ar
   25    15    16 ar
   26    15    33 1
   27    16    17 ar
   28    17    18 1
   29    17    24 ar
   30    18    19 2
   31    18    20 am
   32    20    21 1
   33    20    34 1
   34    21    22 1
   35    21    23 2
   36    22    35 1
   37    22    36 1
   38    23    24 1
@<TRIPOS>SUBSTRUCTURE
1   ****   1
@<TRIPOS>MOLECULE
1rob
33  34  1  0  0
SMALL
FORMAL_CHARGES
@<TRIPOS>ATOM
    1 N1         1.0506    -0.6452     0.2555 N.am       1 ****  0
    2 C1        -0.1312    -1.3020    -0.1056 C.2        1 ****  0
    3 N2        -1.3431    -0.6416    -0.1787 N.am       1 ****  0
    4 C2        -1.4258     0.5898     0.1770 C.2        1 ****  0
    5 C3        -0.2445     1.2846     0.6944 C.2        1 ****  0
    6 C4         0.9363     0.6735     0.7396 C.2        1 ****  0
    7 O1        -0.0931    -2.5142    -0.4080 O.2        1 ****  0
    8 N3        -2.6894     1.2500     0.0551 N.3        1 ****  0
    9 C5         2.3150    -1.4137     0.1289 C.3        1 ****  0
   10 C6         3.0807    -1.1404    -1.2176 C.3        1 ****  0
   11 O2         3.9378    -2.2727    -1.6249 O.3        1 ****  0
   12 C7         2.9655    -0.1293    -0.2158 C.3        1 ****  0
   13 C8         4.5494    -0.7809     0.3022 C.3        1 ****  0
   14 O3         3.3395    -1.1104     1.1525 O.3        1 ****  0
   15 O4         2.8122     1.1860    -0.9772 O.3        1 ****  0
   16 C9         5.5549     0.1813     1.2304 C.3        1 ****  0
   17 O5         6.2994    -0.9999     1.0244 O.3        1 ****  0
   18 P1         5.2219    -2.6380    -0.9052 P.3        1 ****  0
   19 O6         5.7116    -3.8004    -1.4625 O.2        1 ****  0
   20 O7         6.2371    -1.5438    -1.1743 O.2        1 ****  -1
   21 O8         4.9652    -2.8901     0.5669 O.2        1 ****  -1
   22 H1        -0.3322     2.2936     1.0394 H          1 ****  0
   23 H2         1.7909     1.1782     1.1395 H          1 ****  0
   24 H3        -3.5089     0.7462    -0.3123 H          1 ****  0
   25 H4        -2.7733     2.2429     0.3218 H          1 ****  0
   26 H5         2.0091    -2.4658     0.1600 H          1 ****  0
   27 H6         2.3958    -1.0316    -2.0693 H          1 ****  0
   28 H7         2.1291    -0.4468     0.4245 H          1 ****  0
   29 H8         5.0320    -1.6779    -0.1048 H          1 ****  0
   30 H9         3.1819     2.0514    -0.6675 H          1 ****  0
   31 H10        5.5506     0.4105     2.2966 H          1 ****  0
   32 H11        6.0699     1.0109     0.7385 H          1 ****  0
   33 H12        7.2467    -0.7822     0.8446 H          1 ****  0
@<TRIPOS>BOND
    1     1     2 am
    2     1     6 1
    3     1     9 1
    4     2     3 am
    5     2     7 2
    6     3     4 2
    7     4     5 1
    8     4     8 1
    9     5     6 2
   10     5    22 1
   11     6    23 1
   12     8    24 1
   13     8    25 1
   14     9    10 1
   15     9    14 1
   16     9    26 1
   17    10    11 1
   18    10    12 1
   19    10    27 1
   20    11    18 1
   21    12    13 1
   22    12    15 1
   23    12    28 1
   24    13    14 1
   25    13    16 1
   26    13    29 1
   27    15    30 1
   28    16    17 1
   29    16    31 1
   30    16    32 1
   31    17    33 1
   32    18    19 2
   33    18    20 1
   34    18    21 1
@<TRIPOS>SUBSTRUCTURE
1   ****   1
@<TRIPOS>MOLECULE
1rt2
51  53  1  0  0
SMALL
FORMAL_CHARGES
@<TRIPOS>ATOM
    1 C1         3.8442    -0.3021     1.2216 C.ar       1 ****  0
    2 C2         3.7188     1.0805     1.2870 C.ar       1 ****  0
    3 C3         4.7696     1.8852     1.7201 C.ar       1 ****  0
    4 C4         5.9716     1.3076     2.0986 C.ar       1 ****  0
    5 C5         6.0930    -0.0770     2.0916 C.ar       1 ****  0
    6 C6         5.0352    -0.8715     1.6689 C.ar       1 ****  0
    7 C7         1.3640    -0.6692     0.1128 C.2        1 ****  0
    8 N1         1.2882     0.6934    -0.3614 N.am       1 ****  0
    9 C8         0.0702     1.3956    -0.2782 C.2        1 ****  0
   10 O1         0.0420     2.6248    -0.4039 O.2        1 ****  0
   11 N2        -1.1073     0.7015    -0.1601 N.am       1 ****  0
   12 C9        -1.0844    -0.6705    -0.1511 C.2        1 ****  0
   13 O2        -2.1713    -1.2634    -0.1303 O.2        1 ****  0
   14 C10        0.2033    -1.4038     0.0883 C.2        1 ****  0
   15 C11        2.7575    -1.2577     0.5717 C.3        1 ****  0
   16 C12        0.0421    -2.9798     0.3118 C.3        1 ****  0
   17 C13        1.3067    -3.8732     0.3067 C.3        1 ****  0
   18 C14       -0.7824    -3.5316    -0.8856 C.3        1 ****  0
   19 C15        2.3796     1.2526    -1.2451 C.3        1 ****  0
   20 O3         3.3937     0.2166    -1.6028 O.3        1 ****  0
   21 C16        4.6964     0.7971    -1.9350 C.3        1 ****  0
   22 C17        5.8966    -0.0711    -1.4451 C.ar       1 ****  0
   23 C18        5.7708    -1.4422    -1.2171 C.ar       1 ****  0
   24 C19        6.8518    -2.1769    -0.7360 C.ar       1 ****  0
   25 C20        8.0662    -1.5512    -0.4714 C.ar       1 ****  0
   26 C21        8.2000    -0.1901    -0.7086 C.ar       1 ****  0
   27 C22        7.1202     0.5411    -1.1984 C.ar       1 ****  0
   28 H1         2.7948     1.5364     0.9984 H          1 ****  0
   29 H2         4.6494     2.9477     1.7607 H          1 ****  0
   30 H3         6.7972     1.9212     2.3929 H          1 ****  0
   31 H4         7.0059    -0.5330     2.4136 H          1 ****  0
   32 H5         5.1360    -1.9366     1.6869 H          1 ****  0
   33 H6        -1.9817     1.1869    -0.1288 H          1 ****  0
   34 H7         2.5635    -2.1011     1.2796 H          1 ****  0
   35 H8         3.2248    -1.7747    -0.3060 H          1 ****  0
   36 H9        -0.5233    -3.1612     1.2289 H          1 ****  0
   37 H10        1.9538    -3.4306     1.0701 H          1 ****  0
   38 H11        1.7862    -3.6579    -0.6531 H          1 ****  0
   39 H12        1.1180    -4.8368     0.4522 H          1 ****  0
   40 H13       -0.2721    -3.3638    -1.8048 H          1 ****  0
   41 H14       -1.7492    -3.0866    -0.9155 H          1 ****  0
   42 H15       -0.9060    -4.6101    -0.7546 H          1 ****  0
   43 H16        1.9379     1.6459    -2.1518 H          1 ****  0
   44 H17        2.8703     2.0672    -0.7336 H          1 ****  0
   45 H18        4.7682     1.7846    -1.4917 H          1 ****  0
   46 H19        4.7642     0.9227    -3.0132 H          1 ****  0
   47 H20        4.8395    -1.9313    -1.4129 H          1 ****  0
   48 H21        6.7479    -3.2286    -0.5689 H          1 ****  0
   49 H22        8.8907    -2.1151    -0.0879 H          1 ****  0
   50 H23        9.1327     0.2974    -0.5153 H          1 ****  0
   51 H24        7.2340     1.5881    -1.3874 H          1 ****  0
@<TRIPOS>BOND
    1     1     2 ar
    2     1     6 ar
    3     1    15 1
    4     2     3 ar
    5     2    28 1
    6     3     4 ar
    7     3    29 1
    8     4     5 ar
    9     4    30 1
   10     5     6 ar
   11     5    31 1
   12     6    32 1
   13     7     8 1
   14     7    14 2
   15     7    15 1
   16     8     9 am
   17     8    19 1
   18     9    10 2
   19     9    11 am
   20    11    12 am
   21    11    33 1
   22    12    13 2
   23    12    14 1
   24    14    16 1
   25    15    34 1
   26    15    35 1
   27    16    17 1
   28    16    18 1
   29    16    36 1
   30    17    37 1
   31    17    38 1
   32    17    39 1
   33    18    40 1
   34    18    41 1
   35    18    42 1
   36    19    20 1
   37    19    43 1
   38    19    44 1
   39    20    21 1
   40    21    22 1
   41    21    45 1
   42    21    46 1
   43    22    23 ar
   44    22    27 ar
   45    23    24 ar
   46    23    47 1
   47    24    25 ar
   48    24    48 1
   49    25    26 ar
   50    25    49 1
   51    26    27 ar
   52    26    50 1
   53    27    51 1
@<TRIPOS>SUBSTRUCTURE
1   ****   1
@<TRIPOS>MOLECULE
1slt
51  52  1  0  0
SMALL
FORMAL_CHARGES
@<TRIPOS>ATOM
    1 C1         1.1675    -1.1223    -0.8478 C.3        1 ****  0
    2 C2         0.1209    -1.8079     0.1369 C.3        1 ****  0
    3 C3        -1.5325    -1.0315    -1.0802 C.3        1 ****  0
    4 C4        -0.9548     0.4884     0.4490 C.3        1 ****  0
    5 C5         0.1364     1.0744    -0.7022 C.3        1 ****  0
    6 C6         0.8084     1.4313     0.6156 C.3        1 ****  0
    7 C7         0.1638    -3.6514     0.9627 C.2        1 ****  0
    8 C8         0.5705    -2.7336     2.0915 C.3        1 ****  0
    9 N1        -0.0937    -3.2428    -0.4162 N.am       1 ****  0
   10 O1        -2.5031    -1.6672    -0.2422 O.3        1 ****  0
   11 O2        -2.3510     1.2793     0.1881 O.3        1 ****  0
   12 O3         1.0228     0.1958    -1.4415 O.3        1 ****  0
   13 O4         0.6980     0.3934     1.5772 O.3        1 ****  0
   14 O5         0.0757    -4.8612     1.2239 O.2        1 ****  0
   15 C9        -2.4174     1.6554     1.7249 C.3        1 ****  0
   16 C10       -2.6452     0.0946     1.8372 C.3        1 ****  0
   17 C11       -2.5186     0.0023     4.0504 C.3        1 ****  0
   18 C12       -2.0777     1.0959     4.1033 C.3        1 ****  0
   19 C13       -1.0288     2.0663     3.6208 C.3        1 ****  0
   20 C14        0.2806     2.7144     4.1475 C.3        1 ****  0
   21 O6        -4.0838    -0.1445     2.0450 O.3        1 ****  0
   22 O7        -2.3761    -1.4374     3.9288 O.3        1 ****  0
   23 O8        -1.6504     0.7114     5.4629 O.3        1 ****  0
   24 O9        -1.1098     2.1165     2.2247 O.3        1 ****  0
   25 O10        1.4442     2.0783     3.5315 O.3        1 ****  0
   26 O11        2.1550    -1.8422    -1.5642 O.3        1 ****  0
   27 H1         1.4957    -1.0521     0.1754 H          1 ****  0
   28 H2         0.4290    -1.7742     1.1908 H          1 ****  0
   29 H3        -1.8388    -1.0233    -2.0528 H          1 ****  0
   30 H4        -0.5964     0.5591     1.4885 H          1 ****  0
   31 H5         0.0438     2.0169    -1.2642 H          1 ****  0
   32 H6         0.3588     2.3306     1.0136 H          1 ****  0
   33 H7         1.8575     1.6384     0.4368 H          1 ****  0
   34 H8        -0.2276    -1.9649     2.0426 H          1 ****  0
   35 H9         1.4537    -2.2278     1.6507 H          1 ****  0
   36 H10        0.7049    -3.1402     2.9410 H          1 ****  0
   37 H11       -0.2510    -3.9637    -1.0750 H          1 ****  0
   38 H12       -2.4450    -2.6088     0.0469 H          1 ****  0
   39 H13        1.5734     0.0145     1.7635 H          1 ****  0
   40 H14       -3.1385     2.4845     1.7487 H          1 ****  0
   41 H15       -2.2217    -0.3818     0.9417 H          1 ****  0
   42 H16       -3.0640     0.2745     4.8757 H          1 ****  0
   43 H17       -3.0539     1.5927     4.0634 H          1 ****  0
   44 H18       -1.9051     2.6138     3.9882 H          1 ****  0
   45 H19        0.2809     3.7635     3.9102 H          1 ****  0
   46 H20        0.3342     2.5975     5.2124 H          1 ****  0
   47 H21       -3.6891    -0.5968     1.2710 H          1 ****  0
   48 H22       -2.9020    -2.0140     3.3238 H          1 ****  0
   49 H23       -1.7766    -0.1863     5.8532 H          1 ****  0
   50 H24        1.4552     1.0987     3.6955 H          1 ****  0
   51 H25        3.0245    -1.3672    -1.4683 H          1 ****  0
@<TRIPOS>BOND
    1     1     2 1
    2     1    12 1
    3     1    26 1
    4     1    27 1
    5     2     3 1
    6     2     9 1
    7     2    28 1
    8     3     4 1
    9     3    10 1
   10     3    29 1
   11     4     5 1
   12     4    11 1
   13     4    30 1
   14     5     6 1
   15     5    12 1
   16     5    31 1
   17     6    13 1
   18     6    32 1
   19     6    33 1
   20     7     8 1
   21     7     9 am
   22     7    14 2
   23     8    34 1
   24     8    35 1
   25     8    36 1
   26     9    37 1
   27    10    38 1
   28    13    39 1
   29    15    11 1
   30    15    16 1
   31    15    24 1
   32    15    40 1
   33    16    17 1
   34    16    21 1
   35    16    41 1
   36    17    18 1
   37    17    22 1
   38    17    42 1
   39    18    19 1
   40    18    23 1
   41    18    43 1
   42    19    20 1
   43    19    24 1
   44    19    44 1
   45    20    25 1
   46    20    45 1
   47    20    46 1
   48    21    47 1
   49    22    48 1
   50    23    49 1
   51    25    50 1
   52    26    51 1
@<TRIPOS>SUBSTRUCTURE
1   ****   1
@<TRIPOS>MOLECULE
1snc
37  38  1  0  0
SMALL
FORMAL_CHARGES
@<TRIPOS>ATOM
    1 N1         1.0885    -0.6018    -0.0182 N.am       1 ****  0
    2 C1        -0.0773    -1.3832    -0.0358 C.2        1 ****  0
    3 O1         0.0001    -2.6162    -0.0692 O.2        1 ****  0
    4 N2        -1.3305    -0.7653    -0.0188 N.am       1 ****  0
    5 C2        -1.4126     0.6204     0.0191 C.2        1 ****  0
    6 O2        -2.5131     1.1822     0.0254 O.2        1 ****  0
    7 C3        -0.1932     1.4044     0.0572 C.2        1 ****  0
    8 C4        -0.2598     2.9014     0.1124 C.3        1 ****  0
    9 C5         0.9866     0.7954     0.0412 C.2        1 ****  0
   10 C6         2.3979    -1.2390    -0.0621 C.3        1 ****  0
   11 C7         3.2202    -0.7655    -1.3128 C.3        1 ****  0
   12 C8         4.0383     0.3407    -0.6939 C.3        1 ****  0
   13 O3         5.0489     0.9538    -1.5817 O.3        1 ****  0
   14 P1         6.2227     0.0706    -2.1378 P.3        1 ****  0
   15 O4         7.2548    -0.1851    -1.0579 O.2        1 ****  -1
   16 O5         5.7074    -1.2382    -2.7069 O.2        1 ****  -1
   17 O6         6.8463     0.7731    -3.1484 O.2        1 ****  0
   18 C9         4.0210    -1.0788    -0.0573 C.3        1 ****  0
   19 O7         3.1807    -0.7967     1.1186 O.3        1 ****  0
   20 C10        5.4634    -1.5706     0.4924 C.3        1 ****  0
   21 O8         5.0206    -2.6273    -0.3599 O.3        1 ****  0
   22 P2         6.2178    -3.5647    -0.6608 P.3        1 ****  0
   23 O9         7.3255    -2.7696    -1.3256 O.2        1 ****  -1
   24 O10        5.8097    -4.5735    -1.5091 O.2        1 ****  0
   25 O11        6.7385    -4.1617     0.6305 O.2        1 ****  -1
   26 H1        -2.1593    -1.3133    -0.0354 H          1 ****  0
   27 H2        -0.8812     3.1067     0.9892 H          1 ****  0
   28 H3        -0.8685     3.1716    -0.7557 H          1 ****  0
   29 H4         0.6262     3.3443     0.1353 H          1 ****  0
   30 H5         1.8795     1.3841     0.0742 H          1 ****  0
   31 H6         2.2850    -2.3326    -0.0859 H          1 ****  0
   32 H7         2.5833    -0.3785    -2.0282 H          1 ****  0
   33 H8         3.8409    -1.5289    -1.6371 H          1 ****  0
   34 H9         3.3544     1.1380    -0.4114 H          1 ****  0
   35 H10        3.5684    -1.8065    -0.7445 H          1 ****  0
   36 H11        5.6608    -1.9841     1.4868 H          1 ****  0
   37 H12        6.4306    -1.2054     0.1234 H          1 ****  0
@<TRIPOS>BOND
    1     1     2 am
    2     1     9 1
    3     1    10 1
    4     2     3 2
    5     2     4 am
    6     4     5 am
    7     4    26 1
    8     5     6 2
    9     5     7 1
   10     7     8 1
   11     7     9 2
   12     8    27 1
   13     8    28 1
   14     8    29 1
   15     9    30 1
   16    10    11 1
   17    10    19 1
   18    10    31 1
   19    11    12 1
   20    11    32 1
   21    11    33 1
   22    12    13 1
   23    12    18 1
   24    12    34 1
   25    13    14 1
   26    14    15 1
   27    14    16 1
   28    14    17 2
   29    18    19 1
   30    18    20 1
   31    18    35 1
   32    20    21 1
   33    20    36 1
   34    20    37 1
   35    21    22 1
   36    22    23 1
   37    22    24 2
   38    22    25 1
@<TRIPOS>SUBSTRUCTURE
1   ****   1
@<TRIPOS>MOLECULE
1srj
33  35  1  0  0
SMALL
FORMAL_CHARGES
@<TRIPOS>ATOM
    1 C1         3.6197    -3.2976    -0.0007 C.ar       1 ****  0
    2 C2         3.6212    -4.6874    -0.0010 C.ar       1 ****  0
    3 C3         4.8252    -5.3815    -0.0011 C.ar       1 ****  0
    4 C4         6.0280    -4.6853    -0.0011 C.ar       1 ****  0
    5 C5         6.0266    -3.2954    -0.0008 C.ar       1 ****  0
    6 C6         4.8225    -2.6014    -0.0006 C.ar       1 ****  0
    7 C7         1.2002    -0.6932    -0.0003 C.ar       1 ****  0
    8 C8        -0.0036    -1.3873    -0.0003 C.ar       1 ****  0
    9 C9        -1.2068    -0.6915    -0.0002 C.ar       1 ****  0
   10 C10       -1.2058     0.6981    -0.0000 C.ar       1 ****  0
   11 C11       -0.0021     1.3917     0.0000 C.ar       1 ****  0
   12 C12       -0.0017     2.7810     0.0002 C.ar       1 ****  0
   13 C13        1.2026     3.4744     0.0002 C.ar       1 ****  0
   14 C14        2.4057     2.7786     0.0001 C.ar       1 ****  0
   15 C15        2.4051     1.3890    -0.0001 C.ar       1 ****  0
   16 C16        1.2009     0.6960    -0.0001 C.ar       1 ****  0
   17 C17        2.3537    -5.4208    -0.0010 C.2        1 ****  0.0000
   18 N1         2.4102    -2.6007    -0.0006 N.2        1 ****  0
   19 N2         2.4097    -1.3906    -0.0004 N.2        1 ****  0
   20 O1         2.3548    -6.6572    -0.0012 O.co2      1 ****  -0.50
   21 O2         1.1761    -4.7432    -0.0009 O.co2      1 ****  -0.50
   22 O3        -2.4073     1.3942     0.0001 O.3        1 ****  0
   23 H1         4.8262    -6.4815    -0.0013 H          1 ****  0
   24 H2         6.9812    -5.2343    -0.0012 H          1 ****  0
   25 H3         6.9788    -2.7446    -0.0007 H          1 ****  0
   26 H4         4.8215    -1.5014    -0.0005 H          1 ****  0
   27 H5        -0.0043    -2.4873    -0.0004 H          1 ****  0
   28 H6        -2.1598    -1.2409    -0.0002 H          1 ****  0
   29 H7        -0.9540     3.3317     0.0004 H          1 ****  0
   30 H8         1.2037     4.5744     0.0004 H          1 ****  0
   31 H9         3.3586     3.3280     0.0001 H          1 ****  0
   32 H10        3.3572     0.8381    -0.0002 H          1 ****  0
   33 H11       -2.8937     1.0631     0.7962 H          1 ****  0
@<TRIPOS>BOND
    1     1     2 ar
    2     1     6 ar
    3     1    18 1
    4     2     3 ar
    5     2    17 1
    6     3     4 ar
    7     3    23 1
    8     4     5 ar
    9     4    24 1
   10     5     6 ar
   11     5    25 1
   12     6    26 1
   13     7     8 ar
   14     7    16 ar
   15     7    19 1
   16     8     9 ar
   17     8    27 1
   18     9    10 ar
   19     9    28 1
   20    10    11 ar
   21    10    22 1
   22    11    12 ar
   23    11    16 ar
   24    12    13 ar
   25    12    29 1
   26    13    14 ar
   27    13    30 1
   28    14    15 ar
   29    14    31 1
   30    15    16 ar
   31    15    32 1
   32    17    20 ar
   33    17    21 ar
   34    18    19 2
   35    22    33 1
@<TRIPOS>SUBSTRUCTURE
1   ****   1
@<TRIPOS>MOLECULE
1tdb
32  33  1  0  0
SMALL
FORMAL_CHARGES
@<TRIPOS>ATOM
    1 N1         1.1851    -0.6837    -0.0001 N.am       1 ****  0
    2 C1        -0.0201    -1.3947    -0.0003 C.2        1 ****  0
    3 N2        -1.2337    -0.7107    -0.0003 N.am       1 ****  0
    4 C2        -1.2318     0.6782    -0.0001 C.2        1 ****  0
    5 C3         0.0373     1.3957    -0.0000 C.2        1 ****  0
    6 C4         1.1843     0.7183     0.0000 C.2        1 ****  0
    7 O1        -0.0072    -2.6313    -0.0004 O.2        1 ****  0
    8 O2        -2.2992     1.3027    -0.0002 O.2        1 ****  0
    9 F1         0.0504     2.7344     0.0001 F          1 ****  0
   10 C5         2.4284    -1.3933     0.0002 C.3        1 ****  0
   11 C6         3.2350    -1.0236     1.2417 C.3        1 ****  0
   12 C7         3.7642    -1.6029     0.0679 C.3        1 ****  0
   13 C8         3.6986    -0.3905     0.0688 C.3        1 ****  0
   14 O3         3.2317    -0.9929    -1.1431 O.3        1 ****  0
   15 O4         4.6574    -2.7574     0.4468 O.3        1 ****  0
   16 C9         4.4873     0.9006    -0.2992 C.3        1 ****  0
   17 O5         3.3803     1.1734     0.5613 O.3        1 ****  0
   18 P1         3.3648     2.6813     0.9111 P.3        1 ****  0
   19 O6         4.6780     3.0506     1.6465 O.3        1 ****  0
   20 O7         2.2867     2.9551     1.7270 O.2        1 ****  0
   21 O8         3.2549     3.4939    -0.3650 O.2        1 ****  -1
   22 H1        -2.1234    -1.2297    -0.0004 H          1 ****  0
   23 H2         2.1395     1.2639     0.0001 H          1 ****  0
   24 H3         2.2025    -2.4695    -0.0281 H          1 ****  0
   25 H4         3.1477     0.0518     1.4557 H          1 ****  0
   26 H5         2.9708    -1.6766     2.0865 H          1 ****  0
   27 H6         2.9157    -1.8515    -0.5866 H          1 ****  0
   28 H7         2.8632    -0.1755     0.7513 H          1 ****  0
   29 H8         3.9834    -2.9922    -0.2393 H          1 ****  0
   30 H9         4.3724     1.4683    -1.2343 H          1 ****  0
   31 H10        5.4210     1.2002     0.1992 H          1 ****  0
   32 H11        5.4523     2.8564     1.0611 H          1 ****  0
@<TRIPOS>BOND
    1     1     2 am
    2     1     6 1
    3     1    10 1
    4     2     3 am
    5     2     7 2
    6     3     4 am
    7     3    22 1
    8     4     5 1
    9     4     8 2
   10     5     6 2
   11     5     9 1
   12     6    23 1
   13    10    11 1
   14    10    14 1
   15    10    24 1
   16    11    12 1
   17    11    25 1
   18    11    26 1
   19    12    13 1
   20    12    15 1
   21    12    27 1
   22    13    14 1
   23    13    16 1
   24    13    28 1
   25    15    29 1
   26    16    17 1
   27    16    30 1
   28    16    31 1
   29    17    18 1
   30    18    19 1
   31    18    20 2
   32    18    21 1
   33    19    32 1
@<TRIPOS>SUBSTRUCTURE
1   ****   1
@<TRIPOS>MOLECULE
1tlp
69  71  1  0  0
SMALL
FORMAL_CHARGES
@<TRIPOS>ATOM
    1 C1         1.2014    -0.7316     0.2311 C.3        1 ****  0
    2 O1         2.3658    -1.4467    -0.2593 O.3        1 ****  0
    3 C2         0.3330     0.2215    -0.6321 C.3        1 ****  0
    4 O2         1.2316     0.7191    -1.7123 O.3        1 ****  0
    5 C3        -0.0017     1.4302    -0.8577 C.3        1 ****  0
    6 O3         0.0003     2.8014    -0.2444 O.3        1 ****  0
    7 C4        -1.2084     0.7060     0.8449 C.3        1 ****  0
    8 O4        -2.4087     1.3593     0.2380 O.3        1 ****  0
    9 C5        -1.1816    -0.7391     0.2517 C.3        1 ****  0
   10 O5         0.0069    -1.3900    -0.2420 O.3        1 ****  0
   11 C6        -1.1962    -0.7655     1.7915 C.3        1 ****  0
   12 P1         2.3561    -1.6627    -1.8148 P.3        1 ****  0
   13 O6         1.1138    -2.4314    -2.2214 O.2        1 ****  -1
   14 O7         2.3805    -0.4539    -2.4810 O.2        1 ****  0
   15 N1         3.6146    -2.4991    -2.2184 N.pl3      1 ****  0
   16 C7         3.8225    -2.8797    -3.5921 C.3        1 ****  0
   17 C8         4.8666    -3.9510    -3.7382 C.2        1 ****  0
   18 O8         5.2586    -4.5772    -2.7471 O.2        1 ****  0
   19 C9         4.0981    -1.6412    -4.4972 C.3        1 ****  0
   20 C10        5.2312    -0.7145    -3.9413 C.3        1 ****  0
   21 C11        5.3302     0.5403    -4.8243 C.3        1 ****  0
   22 C12        6.6128    -1.4021    -3.9079 C.3        1 ****  0
   23 N2         5.3911    -4.2111    -5.0121 N.am       1 ****  0
   24 C13        5.4318    -5.5171    -5.6597 C.3        1 ****  0
   25 C14        5.9775    -6.5005    -4.5909 C.2        1 ****  0.0000
   26 O9         5.0848    -7.1849    -5.1024 O.co2      1 ****  -0.50
   27 C15        6.4916    -5.4104    -6.7687 C.3        1 ****  0
   28 C16        7.6217    -6.3380    -7.1469 C.ar       1 ****  0
   29 C17        8.6597    -6.7423    -6.3319 C.ar       1 ****  0
   30 C18        7.8340    -6.8487    -8.3957 C.ar       1 ****  0
   31 N3         9.4899    -7.4883    -7.0752 N.ar       1 ****  0
   32 C19        9.0034    -7.5575    -8.3127 C.ar       1 ****  0
   33 C20        7.1006    -6.7422    -9.5648 C.ar       1 ****  0
   34 C21        9.5248    -8.2176    -9.4131 C.ar       1 ****  0
   35 C22        7.6130    -7.4016   -10.6811 C.ar       1 ****  0
   36 C23        8.8064    -8.1275   -10.6052 C.ar       1 ****  0
   37 O10        6.5929    -6.9231    -3.4567 O.co2      1 ****  -0.50
   38 H1         1.1963    -0.7247     1.3311 H          1 ****  0
   39 H2        -0.5818    -0.2794    -0.9817 H          1 ****  0
   40 H3         0.4034     0.2827    -2.0342 H          1 ****  0
   41 H4        -0.0145     1.4034    -1.9573 H          1 ****  0
   42 H5        -0.0168     2.7917    -1.2342 H          1 ****  0
   43 H6        -1.1854     0.6971     1.9446 H          1 ****  0
   44 H7        -2.4317     2.2945    -0.0862 H          1 ****  0
   45 H8        -2.0664    -1.2768    -0.1199 H          1 ****  0
   46 H9        -2.1159    -0.2824     2.1533 H          1 ****  0
   47 H10       -0.3231    -0.2147     2.1714 H          1 ****  0
   48 H11       -1.1605    -1.8059     2.1470 H          1 ****  0
   49 H12        4.2971    -2.7788    -1.4995 H          1 ****  0
   50 H13        2.8828    -3.3268    -3.9484 H          1 ****  0
   51 H14        4.3819    -1.9887    -5.5016 H          1 ****  0
   52 H15        3.1726    -1.0545    -4.5934 H          1 ****  0
   53 H16        4.9620    -0.4620    -2.9051 H          1 ****  0
   54 H17        4.3734     1.0828    -4.8075 H          1 ****  0
   55 H18        5.5703     0.2494    -5.8576 H          1 ****  0
   56 H19        6.1252     1.1950    -4.4379 H          1 ****  0
   57 H20        6.8598    -1.7141    -4.9334 H          1 ****  0
   58 H21        6.5279    -2.3007    -3.2791 H          1 ****  0
   59 H22        7.3838    -0.7243    -3.5128 H          1 ****  0
   60 H23        5.0405    -3.6679    -5.8139 H          1 ****  0
   61 H24        4.4634    -5.8259    -6.0803 H          1 ****  0
   62 H25        5.5433    -5.8310    -7.1345 H          1 ****  0
   63 H26        6.6489    -4.4357    -7.2537 H          1 ****  0
   64 H27        8.7833    -6.4973    -5.2667 H          1 ****  0
   65 H28       10.3580    -7.9330    -6.7444 H          1 ****  0
   66 H29        6.1635    -6.1680    -9.6106 H          1 ****  0
   67 H30       10.4635    -8.7876    -9.3497 H          1 ****  0
   68 H31        7.0705    -7.3502   -11.6366 H          1 ****  0
   69 H32        9.1855    -8.6372   -11.5033 H          1 ****  0
@<TRIPOS>BOND
    1     1     2 1
    2     1     3 1
    3     1    10 1
    4     1    38 1
    5     2    12 1
    6     3     4 1
    7     3     5 1
    8     3    39 1
    9     4    40 1
   10     5     6 1
   11     5     7 1
   12     5    41 1
   13     6    42 1
   14     7     8 1
   15     7     9 1
   16     7    43 1
   17     8    44 1
   18     9    10 1
   19     9    11 1
   20     9    45 1
   21    11    46 1
   22    11    47 1
   23    11    48 1
   24    12    13 1
   25    12    14 2
   26    12    15 1
   27    15    49 1
   28    16    15 1
   29    16    17 1
   30    16    19 1
   31    16    50 1
   32    17    18 2
   33    17    23 am
   34    19    20 1
   35    19    51 1
   36    19    52 1
   37    20    21 1
   38    20    22 1
   39    20    53 1
   40    21    54 1
   41    21    55 1
   42    21    56 1
   43    22    57 1
   44    22    58 1
   45    22    59 1
   46    23    60 1
   47    24    23 1
   48    24    25 1
   49    24    27 1
   50    24    61 1
   51    25    26 ar
   52    25    37 ar
   53    27    28 1
   54    27    62 1
   55    27    63 1
   56    28    29 ar
   57    28    30 ar
   58    29    31 ar
   59    29    64 1
   60    30    32 ar
   61    30    33 ar
   62    31    32 ar
   63    31    65 1
   64    32    34 ar
   65    33    35 ar
   66    33    66 1
   67    34    36 ar
   68    34    67 1
   69    35    36 ar
   70    35    68 1
   71    36    69 1
@<TRIPOS>SUBSTRUCTURE
1   ****   1
@<TRIPOS>MOLECULE
1tmn
67  69  1  0  0
SMALL
FORMAL_CHARGES
@<TRIPOS>ATOM
    1 C1         8.5623    -7.5106    -0.2938 C.3        1 ****  0
    2 C2        10.0734    -7.6537    -0.5849 C.3        1 ****  0
    3 C3        10.4108    -9.1706    -0.5641 C.3        1 ****  0
    4 C4        11.8935    -9.4178    -0.6744 C.ar       1 ****  0
    5 C5        12.3697   -10.7241    -0.7025 C.ar       1 ****  0
    6 C6        12.7842    -8.3525    -0.6999 C.ar       1 ****  0
    7 C7        13.7372   -10.9633    -0.7567 C.ar       1 ****  0
    8 C8        14.1529    -8.5920    -0.7541 C.ar       1 ****  0
    9 C9        14.6289    -9.8969    -0.7825 C.ar       1 ****  0
   10 C10        8.3502    -8.1808     1.0333 C.2        1 ****  0.0000
   11 O1         9.0335    -7.8467     2.0081 O.co2      1 ****  -0.50
   12 O2         7.4234    -9.1645     1.1579 O.co2      1 ****  -0.50
   13 N1         8.1774    -6.0399    -0.2636 N.4        1 ****  1
   14 C11        6.6842    -5.8011    -0.1243 C.3        1 ****  0
   15 C12        6.2863    -4.3683    -0.4224 C.2        1 ****  0
   16 O3         7.1205    -3.5650    -0.8538 O.2        1 ****  0
   17 C13        6.1087    -6.2497     1.2586 C.3        1 ****  0
   18 C14        6.8897    -5.6445     2.4782 C.3        1 ****  0
   19 C15        6.7420    -4.1132     2.6030 C.3        1 ****  0
   20 C16        6.3804    -6.2936     3.7741 C.3        1 ****  0
   21 N2         4.9654    -3.9505    -0.1323 N.am       1 ****  0
   22 C17        4.0004    -3.2199    -0.9783 C.3        1 ****  0
   23 C18        4.8171    -2.1200    -1.6838 C.2        1 ****  0.0000
   24 O4         4.1885    -2.6169    -2.6245 O.co2      1 ****  -0.50
   25 C19        3.0202    -2.5087    -0.0036 C.3        1 ****  0
   26 C20        2.5083    -1.0865    -0.0003 C.ar       1 ****  0
   27 C21        3.2817     0.0727    -0.0001 C.ar       1 ****  0
   28 C22        1.1900    -0.6868    -0.0002 C.ar       1 ****  0
   29 N3         2.4549     1.1283    -0.0000 N.ar       1 ****  0
   30 C23        1.2001     0.6832    -0.0000 C.ar       1 ****  0
   31 C24        0.0223    -1.4301    -0.0003 C.ar       1 ****  0
   32 C25        0.0220     1.4118     0.0001 C.ar       1 ****  0
   33 C26       -1.1716    -0.7104    -0.0002 C.ar       1 ****  0
   34 C27       -1.1705     0.6885    -0.0000 C.ar       1 ****  0
   35 O5         5.7221    -1.1354    -1.9146 O.co2      1 ****  -0.50
   36 H1         7.9316    -7.9736    -1.0671 H          1 ****  0
   37 H2        10.3019    -7.2366    -1.5768 H          1 ****  0
   38 H3        10.6533    -7.1343     0.1922 H          1 ****  0
   39 H4         9.9006    -9.6665    -1.4030 H          1 ****  0
   40 H5        10.0420    -9.6097     0.3746 H          1 ****  0
   41 H6        11.6640   -11.5676    -0.6819 H          1 ****  0
   42 H7        12.4070    -7.3195    -0.6772 H          1 ****  0
   43 H8        14.1144   -11.9964    -0.7792 H          1 ****  0
   44 H9        14.8586    -7.7484    -0.7746 H          1 ****  0
   45 H10       15.7116   -10.0864    -0.8254 H          1 ****  0
   46 H11        8.6613    -5.5854     0.5239 H          1 ****  0
   47 H12        8.5058    -5.5911    -1.1306 H          1 ****  0
   48 H13        6.2301    -6.4454    -0.8915 H          1 ****  0
   49 H14        5.0542    -5.9435     1.3229 H          1 ****  0
   50 H15        6.1438    -7.3473     1.3221 H          1 ****  0
   51 H16        7.9556    -5.8566     2.3083 H          1 ****  0
   52 H17        5.6699    -3.8872     2.7006 H          1 ****  0
   53 H18        7.1091    -3.6643     1.6683 H          1 ****  0
   54 H19        7.3020    -3.7265     3.4672 H          1 ****  0
   55 H20        6.5484    -7.3800     3.7353 H          1 ****  0
   56 H21        5.3055    -6.0918     3.8920 H          1 ****  0
   57 H22        6.9254    -5.8720     4.6316 H          1 ****  0
   58 H23        4.2808    -4.6486     0.1915 H          1 ****  0
   59 H24        3.4532    -3.8664    -1.6803 H          1 ****  0
   60 H25        2.8071    -2.9697     0.9721 H          1 ****  0
   61 H26        2.4904    -3.0798    -0.7802 H          1 ****  0
   62 H27        4.3809     0.1145    -0.0001 H          1 ****  0
   63 H28        2.7422     2.1174     0.0001 H          1 ****  0
   64 H29        0.0357    -2.5300    -0.0004 H          1 ****  0
   65 H30        0.0268     2.5118     0.0002 H          1 ****  0
   66 H31       -2.1296    -1.2510    -0.0002 H          1 ****  0
   67 H32       -2.1288     1.2285     0.0001 H          1 ****  0
@<TRIPOS>BOND
    1     1     2 1
    2     1    10 1
    3     1    13 1
    4     1    36 1
    5     2     3 1
    6     2    37 1
    7     2    38 1
    8     3     4 1
    9     3    39 1
   10     3    40 1
   11     4     5 ar
   12     4     6 ar
   13     5     7 ar
   14     5    41 1
   15     6     8 ar
   16     6    42 1
   17     7     9 ar
   18     7    43 1
   19     8     9 ar
   20     8    44 1
   21     9    45 1
   22    10    11 ar
   23    10    12 ar
   24    13    46 1
   25    13    47 1
   26    14    13 1
   27    14    15 1
   28    14    17 1
   29    14    48 1
   30    15    16 2
   31    15    21 am
   32    17    18 1
   33    17    49 1
   34    17    50 1
   35    18    19 1
   36    18    20 1
   37    18    51 1
   38    19    52 1
   39    19    53 1
   40    19    54 1
   41    20    55 1
   42    20    56 1
   43    20    57 1
   44    21    58 1
   45    22    21 1
   46    22    23 1
   47    22    25 1
   48    22    59 1
   49    23    24 ar
   50    23    35 ar
   51    25    26 1
   52    25    60 1
   53    25    61 1
   54    26    27 ar
   55    26    28 ar
   56    27    29 ar
   57    27    62 1
   58    28    30 ar
   59    28    31 ar
   60    29    30 ar
   61    29    63 1
   62    30    32 ar
   63    31    33 ar
   64    31    64 1
   65    32    34 ar
   66    32    65 1
   67    33    34 ar
   68    33    66 1
   69    34    67 1
@<TRIPOS>SUBSTRUCTURE
1   ****   1
@<TRIPOS>MOLECULE
1tng
24  24  1  0  0
SMALL
FORMAL_CHARGES
@<TRIPOS>ATOM
    1 C1         1.2017    -0.6947     0.2358 C.3        1 ****  0
    2 C2        -0.0266    -1.4450    -0.3543 C.3        1 ****  0
    3 C3        -1.3413    -0.6805    -0.1004 C.3        1 ****  0
    4 C4        -1.2513     0.7231    -0.7327 C.3        1 ****  0
    5 C5        -0.0806     1.5015    -0.0991 C.3        1 ****  0
    6 C6         1.2385     0.7447    -0.3530 C.3        1 ****  0
    7 C7         1.2668    -0.7332     1.8250 C.3        1 ****  0
    8 N1         0.1652    -0.0971     2.5934 N.4        1 ****  1
    9 H1         2.1049    -1.2163    -0.1119 H          1 ****  0
   10 H2        -0.0944    -2.4254     0.0923 H          1 ****  0
   11 H3         0.1110    -1.5722    -1.4202 H          1 ****  0
   12 H4        -2.1582    -1.2182    -0.5401 H          1 ****  0
   13 H5        -1.5024    -0.5864     0.9527 H          1 ****  0
   14 H6        -2.1650     1.2522    -0.5601 H          1 ****  0
   15 H7        -1.0875     0.6296    -1.7887 H          1 ****  0
   16 H8        -0.0217     2.4782    -0.5379 H          1 ****  0
   17 H9        -0.2408     1.5933     0.9544 H          1 ****  0
   18 H10        2.0559     1.2935     0.0965 H          1 ****  0
   19 H11        1.4178     0.6911    -1.4161 H          1 ****  0
   20 H12        2.2244    -0.2786     2.1519 H          1 ****  0
   21 H13        1.3506    -1.7933     2.1509 H          1 ****  0
   22 H14       -0.7254    -0.5481     2.3812 H          1 ****  0
   23 H15        0.1114     0.8999     2.3821 H          1 ****  0
   24 H16        0.3580    -0.2092     3.5975 H          1 ****  0
@<TRIPOS>BOND
    1     1     2 1
    2     1     6 1
    3     1     7 1
    4     1     9 1
    5     2     3 1
    6     2    10 1
    7     2    11 1
    8     3     4 1
    9     3    12 1
   10     3    13 1
   11     4     5 1
   12     4    14 1
   13     4    15 1
   14     5     6 1
   15     5    16 1
   16     5    17 1
   17     6    18 1
   18     6    19 1
   19     7     8 1
   20     7    20 1
   21     7    21 1
   22     8    22 1
   23     8    23 1
   24     8    24 1
@<TRIPOS>SUBSTRUCTURE
1   ****   1
@<TRIPOS>MOLECULE
1tnh
18  18  1  0  0
SMALL
FORMAL_CHARGES
@<TRIPOS>ATOM
    1 C1         1.1868    -0.6853    -0.0001 C.ar       1 ****  0
    2 C2         1.1877     0.7046     0.0001 C.ar       1 ****  0
    3 C3        -0.0157     1.3996     0.0001 C.ar       1 ****  0
    4 C4        -1.2191     0.7042    -0.0001 C.ar       1 ****  0
    5 C5        -1.2199    -0.6856    -0.0003 C.ar       1 ****  0
    6 C6        -0.0166    -1.3806    -0.0003 C.ar       1 ****  0
    7 C7         2.4841    -1.4355    -0.0001 C.3        1 ****  0
    8 N1         3.6043    -0.4835     0.0009 N.4        1 ****  1
    9 F1        -2.3788     1.3729    -0.0001 F          1 ****  0
   10 H1         2.1406     1.2542     0.0003 H          1 ****  0
   11 H2        -0.0159     2.4996     0.0003 H          1 ****  0
   12 H3        -2.1727    -1.2353    -0.0004 H          1 ****  0
   13 H4        -0.0165    -2.4806    -0.0004 H          1 ****  0
   14 H5         2.5414    -2.0686     0.8977 H          1 ****  0
   15 H6         2.5428    -2.0681    -0.8980 H          1 ****  0
   16 H7         3.5508     0.1088     0.8419 H          1 ****  0
   17 H8         3.5514     0.1098    -0.8394 H          1 ****  0
   18 H9         4.4956    -0.9996     0.0009 H          1 ****  0
@<TRIPOS>BOND
    1     1     2 ar
    2     1     6 ar
    3     1     7 1
    4     2     3 ar
    5     2    10 1
    6     3     4 ar
    7     3    11 1
    8     4     5 ar
    9     4     9 1
   10     5     6 ar
   11     5    12 1
   12     6    13 1
   13     7     8 1
   14     7    14 1
   15     7    15 1
   16     8    16 1
   17     8    17 1
   18     8    18 1
@<TRIPOS>SUBSTRUCTURE
1   ****   1
@<TRIPOS>MOLECULE
1tni
27  27  1  0  0
SMALL
FORMAL_CHARGES
@<TRIPOS>ATOM
    1 C1         6.2081    -0.2951    -0.0002 C.3        1 ****  0
    2 C2         5.0108    -1.2627    -0.0001 C.3        1 ****  0
    3 C3         3.6937    -0.4638    -0.0001 C.3        1 ****  0
    4 C4         2.5077    -1.4482    -0.0001 C.3        1 ****  0
    5 C5         1.2084    -0.6974    -0.0001 C.ar       1 ****  0
    6 C6         0.0043    -1.3930    -0.0003 C.ar       1 ****  0
    7 C7        -1.1987    -0.6980    -0.0003 C.ar       1 ****  0
    8 C8        -1.1983     0.6923    -0.0001 C.ar       1 ****  0
    9 C9         0.0048     1.3871     0.0001 C.ar       1 ****  0
   10 C10        1.2089     0.6915     0.0001 C.ar       1 ****  0
   11 N1         7.4597    -1.0674    -0.0002 N.4        1 ****  1
   12 H1         6.1674     0.3381     0.8984 H          1 ****  0
   13 H2         6.1666     0.3386    -0.8984 H          1 ****  0
   14 H3         5.0530    -1.8973    -0.8976 H          1 ****  0
   15 H4         5.0524    -1.8979     0.8970 H          1 ****  0
   16 H5         3.6466     0.1677     0.8993 H          1 ****  0
   17 H6         3.6458     0.1683    -0.8991 H          1 ****  0
   18 H7         2.5603    -2.0843     0.8959 H          1 ****  0
   19 H8         2.5609    -2.0836    -0.8964 H          1 ****  0
   20 H9         0.0042    -2.4930    -0.0005 H          1 ****  0
   21 H10       -2.1515    -1.2478    -0.0004 H          1 ****  0
   22 H11       -2.1508     1.2424    -0.0001 H          1 ****  0
   23 H12        0.0048     2.4871     0.0003 H          1 ****  0
   24 H13        2.1617     1.2413     0.0003 H          1 ****  0
   25 H14        7.4989    -1.6609    -0.8411 H          1 ****  0
   26 H15        7.4989    -1.6608     0.8408 H          1 ****  0
   27 H16        8.2618    -0.4212    -0.0002 H          1 ****  0
@<TRIPOS>BOND
    1     1     2 1
    2     1    11 1
    3     1    12 1
    4     1    13 1
    5     2     3 1
    6     2    14 1
    7     2    15 1
    8     3     4 1
    9     3    16 1
   10     3    17 1
   11     4     5 1
   12     4    18 1
   13     4    19 1
   14     5     6 ar
   15     5    10 ar
   16     6     7 ar
   17     6    20 1
   18     7     8 ar
   19     7    21 1
   20     8     9 ar
   21     8    22 1
   22     9    10 ar
   23     9    23 1
   24    10    24 1
   25    11    25 1
   26    11    26 1
   27    11    27 1
@<TRIPOS>SUBSTRUCTURE
1   ****   1
@<TRIPOS>MOLECULE
1tnl
22  23  1  0  0
SMALL
FORMAL_CHARGES
@<TRIPOS>ATOM
    1 C1         3.6739    -0.9768     0.7776 C.3        1 ****  0
    2 C2         2.6713    -1.2315     1.0662 C.3        1 ****  0
    3 C3         2.9169    -2.2615     1.1564 C.3        1 ****  0
    4 C4         1.2084    -0.6974    -0.0001 C.ar       1 ****  0
    5 C5         0.0043    -1.3930    -0.0003 C.ar       1 ****  0
    6 C6        -1.1987    -0.6980    -0.0003 C.ar       1 ****  0
    7 C7        -1.1983     0.6923    -0.0001 C.ar       1 ****  0
    8 C8         0.0048     1.3871     0.0001 C.ar       1 ****  0
    9 C9         1.2089     0.6915     0.0001 C.ar       1 ****  0
   10 N1         3.2016     0.0767     1.6896 N.4        1 ****  1
   11 H1         4.7132    -0.6920     0.5568 H          1 ****  0
   12 H2         2.8339    -1.0137     2.1321 H          1 ****  0
   13 H3         2.2685    -2.0960     2.0294 H          1 ****  0
   14 H4         3.4821    -3.1562     0.8563 H          1 ****  0
   15 H5         0.0042    -2.4930    -0.0005 H          1 ****  0
   16 H6        -2.1515    -1.2478    -0.0004 H          1 ****  0
   17 H7        -2.1508     1.2424    -0.0001 H          1 ****  0
   18 H8         0.0048     2.4871     0.0003 H          1 ****  0
   19 H9         2.1617     1.2413     0.0003 H          1 ****  0
   20 H10        3.4131    -0.1654     2.6682 H          1 ****  0
   21 H11        2.1900     0.2329     1.5748 H          1 ****  0
   22 H12        3.6951     0.9501     1.4558 H          1 ****  0
@<TRIPOS>BOND
    1     1     2 1
    2     1     3 1
    3     1    10 1
    4     1    11 1
    5     2     3 1
    6     2     4 1
    7     2    12 1
    8     3    13 1
    9     3    14 1
   10     4     5 ar
   11     4     9 ar
   12     5     6 ar
   13     5    15 1
   14     6     7 ar
   15     6    16 1
   16     7     8 ar
   17     7    17 1
   18     8     9 ar
   19     8    18 1
   20     9    19 1
   21    10    20 1
   22    10    21 1
   23    10    22 1
@<TRIPOS>SUBSTRUCTURE
1   ****   1
@<TRIPOS>MOLECULE
1tpp
25  25  1  0  0
SMALL
FORMAL_CHARGES
@<TRIPOS>ATOM
    1 N1         2.4711    -2.8239    -0.0002 N.3        1 ****  0
    2 C1         2.4709    -1.4273    -0.0001 C.2        1 ****  0
    3 N2         3.5716    -0.7923     0.0001 N.2        1 ****  1
    4 C2         1.2032    -0.6950    -0.0001 C.ar       1 ****  0
    5 C3        -0.0001    -1.3901    -0.0003 C.ar       1 ****  0
    6 C4        -1.2036    -0.6951    -0.0003 C.ar       1 ****  0
    7 C5        -1.2029     0.6946    -0.0001 C.ar       1 ****  0
    8 C6        -2.5274     1.4571    -0.0001 C.3        1 ****  0
    9 C7        -3.8144     0.6261    -0.0002 C.2        1 ****  0
   10 O1        -3.8092    -0.6095    -0.0004 O.2        1 ****  0
   11 C8        -5.0994     1.3242    -0.0000 C.2        1 ****  0.0000
   12 O2        -5.1335     2.6820     0.0003 O.co2      1 ****  -0.50
   13 O3        -6.1539     0.6792    -0.0001 O.co2      1 ****  -0.50
   14 C9         0.0006     1.3899     0.0001 C.ar       1 ****  0
   15 C10        1.2040     0.6949     0.0001 C.ar       1 ****  0
   16 H1         1.5790    -3.3388    -0.0004 H          1 ****  0
   17 H2         3.3630    -3.3390    -0.0002 H          1 ****  0
   18 H3         3.5723     0.2377     0.0002 H          1 ****  0
   19 H4         4.4634    -1.3078     0.0001 H          1 ****  0
   20 H5        -0.0001    -2.4901    -0.0004 H          1 ****  0
   21 H6        -2.1564    -1.2448    -0.0004 H          1 ****  0
   22 H7        -2.5446     2.1188     0.8785 H          1 ****  0
   23 H8        -2.5453     2.1196    -0.8780 H          1 ****  0
   24 H9         0.0005     2.4899     0.0003 H          1 ****  0
   25 H10        2.1568     1.2446     0.0003 H          1 ****  0
@<TRIPOS>BOND
    1     1     2 1
    2     1    16 1
    3     1    17 1
    4     2     3 2
    5     2     4 1
    6     3    18 1
    7     3    19 1
    8     4     5 ar
    9     4    15 ar
   10     5     6 ar
   11     5    20 1
   12     6     7 ar
   13     6    21 1
   14     7     8 1
   15     7    14 ar
   16     8     9 1
   17     8    22 1
   18     8    23 1
   19     9    10 2
   20     9    11 1
   21    11    12 ar
   22    11    13 ar
   23    14    15 ar
   24    14    24 1
   25    15    25 1
@<TRIPOS>SUBSTRUCTURE
1   ****   1
@<TRIPOS>MOLECULE
1trk
44  45  1  0  0
SMALL
FORMAL_CHARGES
@<TRIPOS>ATOM
    1 N1         1.1475    -0.6661    -0.0001 N.ar       1 ****  0
    2 C1        -0.0107    -1.3191    -0.0002 C.ar       1 ****  0
    3 C2        -0.0096    -2.8173    -0.0002 C.3        1 ****  0
    4 N2        -1.1693    -0.6671    -0.0001 N.ar       1 ****  0
    5 C3        -1.2020     0.6589    -0.0001 C.ar       1 ****  0
    6 N3        -2.4519     1.3504    -0.0001 N.pl3      1 ****  0
    7 C4        -0.0097     1.3667    -0.0000 C.ar       1 ****  0
    8 C5         1.1835     0.6601    -0.0001 C.ar       1 ****  0
    9 C6        -0.0072     2.9175     0.0000 C.3        1 ****  0
   10 N4         1.2528     3.7139    -0.0006 N.ar       1 ****  1
   11 C7         2.4893     3.2231    -0.0008 C.ar       1 ****  0
   12 S1         3.6186     4.4712    -0.0013 S.3        1 ****  0
   13 C8         2.4219     5.6430    -0.0014 C.ar       1 ****  0
   14 C9         1.1730     5.0410    -0.0010 C.ar       1 ****  0
   15 C10       -0.1154     5.8028    -0.0009 C.3        1 ****  0
   16 C11        2.6669     7.1200    -0.0018 C.3        1 ****  0
   17 C12        4.1806     7.4101    -0.0403 C.3        1 ****  0
   18 O1         4.3815     8.8271    -0.0367 O.3        1 ****  0
   19 P1         5.8974     9.1515    -0.0593 P.3        1 ****  0
   20 O2         6.4610     8.6240    -1.2035 O.2        1 ****  0
   21 O3         6.5727     8.5256     1.1861 O.3        1 ****  0
   22 O4         6.0835    10.6974    -0.0436 O.3        1 ****  0
   23 P2         7.5919    11.0777    -0.0086 P.3        1 ****  0
   24 O5         7.7137    12.4525    -0.0371 O.2        1 ****  0
   25 O6         8.2256    10.5487     1.2638 O.2        1 ****  -1
   26 O7         8.3182    10.4753    -1.2376 O.3        1 ****  0
   27 H1         0.5718    -3.1096     0.8867 H          1 ****  0
   28 H2         0.5718    -3.1096    -0.8871 H          1 ****  0
   29 H3        -1.0185    -3.2556    -0.0002 H          1 ****  0
   30 H4        -3.3320     0.8152    -0.0001 H          1 ****  0
   31 H5        -2.4738     2.3801    -0.0000 H          1 ****  0
   32 H6         2.1465     1.1918    -0.0000 H          1 ****  0
   33 H7        -0.6009     3.2487    -0.8647 H          1 ****  0
   34 H8        -0.6002     3.2496     0.8649 H          1 ****  0
   35 H9         2.7386     2.1517    -0.0005 H          1 ****  0
   36 H10       -0.6450     5.4116     0.8803 H          1 ****  0
   37 H11       -0.6454     5.4112    -0.8817 H          1 ****  0
   38 H12       -0.0156     6.8982    -0.0012 H          1 ****  0
   39 H13        2.1874     7.5689    -0.8842 H          1 ****  0
   40 H14        2.2344     7.5627     0.9076 H          1 ****  0
   41 H15        4.6158     6.9795    -0.9542 H          1 ****  0
   42 H16        4.6626     6.9680     0.8442 H          1 ****  0
   43 H17        6.4461     7.5438     1.1748 H          1 ****  0
   44 H18        7.9079    10.8293    -2.0661 H          1 ****  0
@<TRIPOS>BOND
    1     1     2 ar
    2     1     8 ar
    3     2     3 1
    4     2     4 ar
    5     3    27 1
    6     3    28 1
    7     3    29 1
    8     4     5 ar
    9     5     6 1
   10     5     7 ar
   11     6    30 1
   12     6    31 1
   13     7     8 ar
   14     7     9 1
   15     8    32 1
   16     9    10 1
   17     9    33 1
   18     9    34 1
   19    10    11 ar
   20    10    14 ar
   21    11    12 ar
   22    11    35 1
   23    12    13 ar
   24    13    14 ar
   25    13    16 1
   26    14    15 1
   27    15    36 1
   28    15    37 1
   29    15    38 1
   30    16    17 1
   31    16    39 1
   32    16    40 1
   33    17    18 1
   34    17    41 1
   35    17    42 1
   36    19    18 1
   37    19    20 2
   38    19    21 1
   39    19    22 1
   40    21    43 1
   41    22    23 1
   42    23    24 2
   43    23    25 1
   44    23    26 1
   45    26    44 1
@<TRIPOS>SUBSTRUCTURE
1   ****   1
@<TRIPOS>MOLECULE
1tyl
20  20  1  0  0
SMALL
FORMAL_CHARGES
@<TRIPOS>ATOM
    1 C1         1.1992    -0.6924    -0.0001 C.ar       1 ****  0
    2 C2        -0.0042    -1.3876    -0.0003 C.ar       1 ****  0
    3 C3        -1.2076    -0.6927    -0.0003 C.ar       1 ****  0
    4 C4        -1.2069     0.6971    -0.0001 C.ar       1 ****  0
    5 C5        -0.0035     1.3925     0.0001 C.ar       1 ****  0
    6 C6         1.2001     0.6975     0.0001 C.ar       1 ****  0
    7 N1         2.4484    -1.4119    -0.0001 N.am       1 ****  0
    8 C7         3.8002    -0.8938    -0.0001 C.2        1 ****  0
    9 C8         4.1516     0.5767    -0.0002 C.3        1 ****  0
   10 O1        -2.4097     1.3908    -0.0001 O.3        1 ****  0
   11 O2         4.7306    -1.7079     0.0000 O.2        1 ****  0
   12 H1        -0.0042    -2.4876    -0.0004 H          1 ****  0
   13 H2        -2.1604    -1.2424    -0.0004 H          1 ****  0
   14 H3        -0.0036     2.4925     0.0003 H          1 ****  0
   15 H4         2.1529     1.2471     0.0003 H          1 ****  0
   16 H5         2.3679    -2.4387    -0.0001 H          1 ****  0
   17 H6         3.6111     0.9602     0.8777 H          1 ****  0
   18 H7         3.6112     0.9599    -0.8783 H          1 ****  0
   19 H8         5.2249     0.8177    -0.0002 H          1 ****  0
   20 H9        -2.8960     1.0595     0.7961 H          1 ****  0
@<TRIPOS>BOND
    1     1     2 ar
    2     1     6 ar
    3     1     7 1
    4     2     3 ar
    5     2    12 1
    6     3     4 ar
    7     3    13 1
    8     4     5 ar
    9     4    10 1
   10     5     6 ar
   11     5    14 1
   12     6    15 1
   13     7     8 am
   14     7    16 1
   15     8     9 1
   16     8    11 2
   17     9    17 1
   18     9    18 1
   19     9    19 1
   20    10    20 1
@<TRIPOS>SUBSTRUCTURE
1   ****   1
@<TRIPOS>MOLECULE
1ukz
35  37  1  0  0
SMALL
FORMAL_CHARGES
@<TRIPOS>ATOM
    1 P1         6.5355     0.6726     3.4708 P.3        1 ****  0
    2 O1         6.4206    -0.6962     3.6164 O.2        1 ****  0
    3 O2         7.8259     0.9972     2.7437 O.2        1 ****  -1
    4 O3         6.5469     1.3278     4.8383 O.2        1 ****  -1
    5 O4         5.3356     1.2085     2.6522 O.3        1 ****  0
    6 C1         5.4529     2.6264     2.5189 C.3        1 ****  0
    7 C2         4.2931     3.1591     1.6620 C.3        1 ****  0
    8 O5         4.2556     2.5829     0.3334 O.3        1 ****  0
    9 C3         2.9348     2.8442     2.2479 C.3        1 ****  0
   10 O6         2.6806     3.6069     3.4293 O.3        1 ****  0
   11 C4         2.1066     3.2918     1.0817 C.3        1 ****  0
   12 O7         2.3923     4.6769     0.8645 O.3        1 ****  0
   13 C5         2.8356     2.4744     0.0005 C.3        1 ****  0
   14 N1         2.4002     1.1104     0.0001 N.ar       1 ****  0
   15 C6         3.1945     0.0364    -0.0002 C.ar       1 ****  0
   16 N2         2.4370    -1.0700    -0.0003 N.ar       1 ****  0
   17 C7         1.1751    -0.6620    -0.0002 C.ar       1 ****  0
   18 C8        -0.0050    -1.3788    -0.0004 C.ar       1 ****  0
   19 N3        -0.0166    -2.8067    -0.0006 N.pl3      1 ****  0
   20 N4        -1.1333    -0.6714    -0.0002 N.ar       1 ****  0
   21 C9        -1.1200     0.6680     0.0000 C.ar       1 ****  0
   22 N5         0.0119     1.3757     0.0002 N.ar       1 ****  0
   23 C10        1.1480     0.7004     0.0000 C.ar       1 ****  0
   24 H1         6.4091     2.8722     2.0338 H          1 ****  0
   25 H2         5.4167     3.0926     3.5145 H          1 ****  0
   26 H3         4.4857     4.2416     1.6306 H          1 ****  0
   27 H4         2.7682     1.8103     2.5845 H          1 ****  0
   28 H5         2.7276     4.5687     3.1994 H          1 ****  0
   29 H6         1.0156     3.1688     1.1496 H          1 ****  0
   30 H7         3.3510     4.8042     0.6527 H          1 ****  0
   31 H8         2.6255     2.8523    -1.0110 H          1 ****  0
   32 H9         4.2943     0.0564    -0.0002 H          1 ****  0
   33 H10        0.8824    -3.3095    -0.0007 H          1 ****  0
   34 H11       -0.9051    -3.3276    -0.0007 H          1 ****  0
   35 H12       -2.0796     1.2059     0.0001 H          1 ****  0
@<TRIPOS>BOND
    1     1     2 2
    2     1     3 1
    3     1     4 1
    4     1     5 1
    5     5     6 1
    6     6    24 1
    7     6    25 1
    8     7     6 1
    9     7     8 1
   10     7     9 1
   11     7    26 1
   12     8    13 1
   13     9    10 1
   14     9    11 1
   15     9    27 1
   16    10    28 1
   17    11    12 1
   18    11    13 1
   19    11    29 1
   20    12    30 1
   21    13    14 1
   22    13    31 1
   23    14    15 ar
   24    14    23 ar
   25    15    16 ar
   26    15    32 1
   27    16    17 ar
   28    17    18 ar
   29    17    23 ar
   30    18    19 1
   31    18    20 ar
   32    19    33 1
   33    19    34 1
   34    20    21 ar
   35    21    22 ar
   36    21    35 1
   37    22    23 ar
@<TRIPOS>SUBSTRUCTURE
1   ****   1
@<TRIPOS>MOLECULE
1ulb
16  17  1  0  0
SMALL
FORMAL_CHARGES
@<TRIPOS>ATOM
    1 N1         2.3997     1.1222     0.0001 N.ar       1 ****  0
    2 C1         3.1929     0.0434    -0.0001 C.ar       1 ****  0
    3 N2         2.4655    -1.0803    -0.0003 N.ar       1 ****  0
    4 C2         1.2019    -0.6942    -0.0002 C.ar       1 ****  0
    5 C3         0.0080    -1.4554    -0.0004 C.2        1 ****  0
    6 O1         0.0153    -2.6914    -0.0007 O.2        1 ****  0
    7 N3        -1.1868    -0.7195    -0.0003 N.am       1 ****  0
    8 C4        -1.1489     0.7273    -0.0000 C.2        1 ****  0
    9 N4        -2.3787     1.4536     0.0001 N.3        1 ****  0
   10 N5        -0.0387     1.3752     0.0001 N.2        1 ****  0
   11 C5         1.1573     0.6699     0.0000 C.ar       1 ****  0
   12 H1         2.6980     2.1081     0.0003 H          1 ****  0
   13 H2         4.2924     0.0761    -0.0000 H          1 ****  0
   14 H3        -2.0926    -1.2100    -0.0004 H          1 ****  0
   15 H4        -3.2818     0.9584    -0.0001 H          1 ****  0
   16 H5        -2.3600     2.4834     0.0003 H          1 ****  0
@<TRIPOS>BOND
    1     1     2 ar
    2     1    11 ar
    3     1    12 1
    4     2     3 ar
    5     2    13 1
    6     3     4 ar
    7     4     5 1
    8     4    11 ar
    9     5     6 2
   10     5     7 am
   11     7     8 1
   12     7    14 1
   13     8     9 1
   14     8    10 2
   15     9    15 1
   16     9    16 1
   17    10    11 1
@<TRIPOS>SUBSTRUCTURE
1   ****   1
@<TRIPOS>MOLECULE
1uvs
68  70  1  0  0
SMALL
FORMAL_CHARGES
@<TRIPOS>ATOM
    1 C1         1.2582    -0.7271     0.2428 C.3        1 ****  0
    2 C2         1.2583     0.7084    -0.3167 C.3        1 ****  0
    3 C3         0.0002     1.4504     0.1728 C.3        1 ****  0
    4 C4        -1.2579     0.7085    -0.3171 C.3        1 ****  0
    5 C5        -1.2582    -0.7269     0.2424 C.3        1 ****  0
    6 C6         0.0000    -1.4698    -0.2468 C.3        1 ****  0
    7 S1        -0.0001     1.5074     1.9855 S.O2       1 ****  0
    8 O1         1.2359     2.2466     2.4610 O.2        1 ****  0
    9 O2        -1.2360     2.2467     2.4609 O.2        1 ****  0
   10 N1        -0.0007    -0.0696     2.6543 N.am       1 ****  0
   11 C7        -0.0932    -0.2150     4.0876 C.3        1 ****  0
   12 C8        -0.0395    -1.6635     4.5023 C.2        1 ****  0
   13 O3         0.0672    -2.5517     3.6487 O.2        1 ****  0
   14 N2        -0.1146    -1.9976     5.8681 N.am       1 ****  0
   15 C9         0.0341    -3.3658     6.2985 C.3        1 ****  0
   16 C10       -0.1994    -3.4651     7.8317 C.3        1 ****  0
   17 C11       -0.0530    -4.9290     8.3002 C.3        1 ****  0
   18 N3        -0.1367    -4.9811     9.7730 N.pl3      1 ****  0
   19 C12       -0.0708    -6.3406    10.2405 C.ar       1 ****  0
   20 C13        0.0335    -7.3924     9.3423 C.ar       1 ****  0
   21 C14        0.0905    -8.6926     9.8299 C.ar       1 ****  0
   22 N4         0.0460    -8.9298    11.1371 N.ar       1 ****  1
   23 C15       -0.0538    -7.9407    12.0193 C.ar       1 ****  0
   24 C16       -0.1151    -6.6176    11.5981 C.ar       1 ****  0
   25 C17        1.4194    -3.8794     5.9370 C.2        1 ****  0
   26 O4         1.5111    -4.9075     5.2576 O.2        1 ****  0
   27 N5         2.6164    -3.2157     6.3355 N.am       1 ****  0
   28 C18        2.5880    -1.9988     7.1003 C.3        1 ****  0
   29 C19        3.4799    -2.1528     8.3462 C.3        1 ****  0
   30 C20        4.8872    -2.5936     7.9093 C.3        1 ****  0
   31 C21        4.7708    -3.9499     7.1933 C.3        1 ****  0
   32 C22        3.8754    -3.7912     5.9505 C.3        1 ****  0
   33 H1         2.1559    -1.2574    -0.1078 H          1 ****  0
   34 H2         1.2585    -0.6932     1.3422 H          1 ****  0
   35 H3         2.1559     1.2387     0.0341 H          1 ****  0
   36 H4         1.2586     0.6746    -1.4162 H          1 ****  0
   37 H5         0.0003     2.4751    -0.2271 H          1 ****  0
   38 H6        -2.1559     1.2383     0.0334 H          1 ****  0
   39 H7        -1.2590     0.6728    -1.4165 H          1 ****  0
   40 H8        -2.1558    -1.2578    -0.1078 H          1 ****  0
   41 H9        -1.2585    -0.6920     1.3418 H          1 ****  0
   42 H10       -0.0013    -2.4944     0.1535 H          1 ****  0
   43 H11       -0.0002    -1.5056    -1.3462 H          1 ****  0
   44 H12        0.0636    -0.8980     2.0456 H          1 ****  0
   45 H13        0.7397     0.3268     4.5598 H          1 ****  0
   46 H14       -1.0392     0.2252     4.4357 H          1 ****  0
   47 H15       -0.2772    -1.2580     6.5662 H          1 ****  0
   48 H16       -0.7139    -3.9886     5.7859 H          1 ****  0
   49 H17       -1.2109    -3.1055     8.0718 H          1 ****  0
   50 H18        0.5391    -2.8398     8.3546 H          1 ****  0
   51 H19        0.9205    -5.3241     7.9744 H          1 ****  0
   52 H20       -0.8607    -5.5362     7.8654 H          1 ****  0
   53 H21       -0.2297    -4.1565    10.3831 H          1 ****  0
   54 H22        0.0706    -7.2003     8.2599 H          1 ****  0
   55 H23        0.1733    -9.5344     9.1267 H          1 ****  0
   56 H24        0.0899    -9.9021    11.4739 H          1 ****  0
   57 H25       -0.0882    -8.1718    13.0943 H          1 ****  0
   58 H26       -0.1977    -5.8019    12.3315 H          1 ****  0
   59 H27        1.5553    -1.7857     7.4138 H          1 ****  0
   60 H28        2.9619    -1.1689     6.4828 H          1 ****  0
   61 H29        3.5444    -1.1895     8.8733 H          1 ****  0
   62 H30        3.0494    -2.9118     9.0160 H          1 ****  0
   63 H31        5.5337    -2.6979     8.7932 H          1 ****  0
   64 H32        5.3106    -1.8481     7.2202 H          1 ****  0
   65 H33        5.7704    -4.2893     6.8843 H          1 ****  0
   66 H34        4.3244    -4.6892     7.8747 H          1 ****  0
   67 H35        3.7036    -4.7775     5.4948 H          1 ****  0
   68 H36        4.3731    -3.1333     5.2228 H          1 ****  0
@<TRIPOS>BOND
    1     1     2 1
    2     1     6 1
    3     1    33 1
    4     1    34 1
    5     2     3 1
    6     2    35 1
    7     2    36 1
    8     3     4 1
    9     3     7 1
   10     3    37 1
   11     4     5 1
   12     4    38 1
   13     4    39 1
   14     5     6 1
   15     5    40 1
   16     5    41 1
   17     6    42 1
   18     6    43 1
   19     7     8 2
   20     7     9 2
   21     7    10 am
   22    10    11 1
   23    10    44 1
   24    11    12 1
   25    11    45 1
   26    11    46 1
   27    12    13 2
   28    12    14 am
   29    14    47 1
   30    15    14 1
   31    15    16 1
   32    15    25 1
   33    15    48 1
   34    16    17 1
   35    16    49 1
   36    16    50 1
   37    17    18 1
   38    17    51 1
   39    17    52 1
   40    18    19 1
   41    18    53 1
   42    19    20 ar
   43    19    24 ar
   44    20    21 ar
   45    20    54 1
   46    21    22 ar
   47    21    55 1
   48    22    23 ar
   49    22    56 1
   50    23    24 ar
   51    23    57 1
   52    24    58 1
   53    25    26 2
   54    25    27 am
   55    27    28 1
   56    27    32 1
   57    28    29 1
   58    28    59 1
   59    28    60 1
   60    29    30 1
   61    29    61 1
   62    29    62 1
   63    30    31 1
   64    30    63 1
   65    30    64 1
   66    31    32 1
   67    31    65 1
   68    31    66 1
   69    32    67 1
   70    32    68 1
@<TRIPOS>SUBSTRUCTURE
1   ****   1
@<TRIPOS>MOLECULE
1uvt
49  51  1  0  0
SMALL
FORMAL_CHARGES
@<TRIPOS>ATOM
    1 N1         9.6198    -2.4131     0.0003 N.ar       1 ****  1
    2 C1         8.4823    -3.1007     0.0001 C.ar       1 ****  0
    3 C2         7.2568    -2.4451     0.0001 C.ar       1 ****  0
    4 C3         7.2351    -1.0586     0.0003 C.ar       1 ****  0
    5 C4         8.4371    -0.3671     0.0005 C.ar       1 ****  0
    6 C5         9.6279    -1.0840     0.0005 C.ar       1 ****  0
    7 N2         5.9883    -0.3385     0.0003 N.pl3      1 ****  0
    8 C6         4.8502    -1.2746     0.0001 C.3        1 ****  0
    9 C7         3.5298    -0.4801     0.0001 C.3        1 ****  0
   10 O1         2.4231    -1.3914    -0.0000 O.3        1 ****  0
   11 C8         1.2136    -0.6937    -0.0001 C.ar       1 ****  0
   12 C9         1.2136     0.6961     0.0000 C.ar       1 ****  0
   13 C10        0.0102     1.3910    -0.0000 C.ar       1 ****  0
   14 C11       -1.1934     0.6964    -0.0001 C.ar       1 ****  0
   15 C12       -1.1933    -0.6933    -0.0002 C.ar       1 ****  0
   16 C13        0.0101    -1.3886    -0.0002 C.ar       1 ****  0
   17 C14       -2.4908    -1.4417    -0.0004 C.3        1 ****  0
   18 N3         0.0100     2.7925     0.0002 N.am       1 ****  0
   19 S1         1.4813     3.6598    -0.0227 S.O2       1 ****  0
   20 O2         2.3160     3.2888     1.1886 O.2        1 ****  0
   21 O3         2.2524     3.3201    -1.2842 O.2        1 ****  0
   22 C15        1.1574     5.3994     0.0076 C.ar       1 ****  0
   23 C16        2.2154     6.2987     0.0631 C.ar       1 ****  0
   24 C17        1.9643     7.6654     0.0859 C.ar       1 ****  0
   25 C18        0.6554     8.1319     0.0532 C.ar       1 ****  0
   26 C19       -0.4023     7.2322    -0.0023 C.ar       1 ****  0
   27 C20       -0.1512     5.8653    -0.0251 C.ar       1 ****  0
   28 H1        10.5154    -2.9218     0.0003 H          1 ****  0
   29 H2         8.5111    -4.2004    -0.0000 H          1 ****  0
   30 H3         6.3176    -3.0178    -0.0000 H          1 ****  0
   31 H4         8.4480     0.7328     0.0006 H          1 ****  0
   32 H5        10.5871    -0.5456     0.0006 H          1 ****  0
   33 H6         5.9036     0.6880     0.0004 H          1 ****  0
   34 H7         4.8964    -1.9078    -0.8982 H          1 ****  0
   35 H8         4.8956    -1.9087     0.8978 H          1 ****  0
   36 H9         3.4827     0.1529     0.8985 H          1 ****  0
   37 H10        3.4821     0.1537    -0.8977 H          1 ****  0
   38 H11        2.1663     1.2460     0.0001 H          1 ****  0
   39 H12       -2.1460     1.2464    -0.0002 H          1 ****  0
   40 H13        0.0099    -2.4886    -0.0003 H          1 ****  0
   41 H14       -3.0316    -1.0757    -0.8856 H          1 ****  0
   42 H15       -3.0317    -1.0759     0.8849 H          1 ****  0
   43 H16       -2.3747    -2.5356    -0.0004 H          1 ****  0
   44 H17       -0.8842     3.3034     0.0143 H          1 ****  0
   45 H18        3.2511     5.9290     0.0890 H          1 ****  0
   46 H19        2.8013     8.3779     0.1298 H          1 ****  0
   47 H20        0.4567     9.2136     0.0713 H          1 ****  0
   48 H21       -1.4381     7.6017    -0.0281 H          1 ****  0
   49 H22       -0.9881     5.1528    -0.0690 H          1 ****  0
@<TRIPOS>BOND
    1     1     2 ar
    2     1     6 ar
    3     1    28 1
    4     2     3 ar
    5     2    29 1
    6     3     4 ar
    7     3    30 1
    8     4     5 ar
    9     4     7 1
   10     5     6 ar
   11     5    31 1
   12     6    32 1
   13     7     8 1
   14     7    33 1
   15     8     9 1
   16     8    34 1
   17     8    35 1
   18     9    10 1
   19     9    36 1
   20     9    37 1
   21    10    11 1
   22    11    12 ar
   23    11    16 ar
   24    12    13 ar
   25    12    38 1
   26    13    14 ar
   27    13    18 1
   28    14    15 ar
   29    14    39 1
   30    15    16 ar
   31    15    17 1
   32    16    40 1
   33    17    41 1
   34    17    42 1
   35    17    43 1
   36    18    19 am
   37    18    44 1
   38    19    20 2
   39    19    21 2
   40    19    22 1
   41    22    23 ar
   42    22    27 ar
   43    23    24 ar
   44    23    45 1
   45    24    25 ar
   46    24    46 1
   47    25    26 ar
   48    25    47 1
   49    26    27 ar
   50    26    48 1
   51    27    49 1
@<TRIPOS>SUBSTRUCTURE
1   ****   1
@<TRIPOS>MOLECULE
1wap
27  28  1  0  0
SMALL
FORMAL_CHARGES
@<TRIPOS>ATOM
    1 N1         5.0330    -2.0050    -1.3634 N.4        1 ****  1
    2 C1         4.5633    -2.5579    -0.0811 C.3        1 ****  0
    3 C2         5.0128    -3.9860     0.0195 C.2        1 ****  0.0000
    4 O1         6.2160    -4.2610    -0.0490 O.co2      1 ****  -0.50
    5 C3         3.0184    -2.5042    -0.0025 C.3        1 ****  0
    6 C4         2.5083    -1.0865    -0.0003 C.ar       1 ****  0
    7 C5         3.2817     0.0727    -0.0001 C.ar       1 ****  0
    8 C6         1.1900    -0.6868    -0.0002 C.ar       1 ****  0
    9 N2         2.4549     1.1283    -0.0000 N.ar       1 ****  0
   10 C7         1.2001     0.6832    -0.0000 C.ar       1 ****  0
   11 C8         0.0223    -1.4301    -0.0003 C.ar       1 ****  0
   12 C9         0.0220     1.4118     0.0001 C.ar       1 ****  0
   13 C10       -1.1716    -0.7104    -0.0002 C.ar       1 ****  0
   14 C11       -1.1705     0.6885    -0.0000 C.ar       1 ****  0
   15 O2         4.0968    -4.9774     0.1706 O.co2      1 ****  -0.50
   16 H1         4.7184    -1.0276    -1.4440 H          1 ****  0
   17 H2         4.6302    -2.5555    -2.1352 H          1 ****  0
   18 H3         6.0613    -2.0443    -1.4078 H          1 ****  0
   19 H4         4.9802    -1.9632     0.7450 H          1 ****  0
   20 H5         2.6847    -3.0080     0.9166 H          1 ****  0
   21 H6         2.5940    -3.0381    -0.8656 H          1 ****  0
   22 H7         4.3809     0.1145    -0.0001 H          1 ****  0
   23 H8         2.7422     2.1174     0.0001 H          1 ****  0
   24 H9         0.0357    -2.5300    -0.0004 H          1 ****  0
   25 H10        0.0268     2.5118     0.0002 H          1 ****  0
   26 H11       -2.1296    -1.2510    -0.0002 H          1 ****  0
   27 H12       -2.1288     1.2285     0.0001 H          1 ****  0
@<TRIPOS>BOND
    1     1    16 1
    2     1    17 1
    3     1    18 1
    4     2     1 1
    5     2     3 1
    6     2     5 1
    7     2    19 1
    8     3     4 ar
    9     3    15 ar
   10     5     6 1
   11     5    20 1
   12     5    21 1
   13     6     7 ar
   14     6     8 ar
   15     7     9 ar
   16     7    22 1
   17     8    10 ar
   18     8    11 ar
   19     9    10 ar
   20     9    23 1
   21    10    12 ar
   22    11    13 ar
   23    11    24 1
   24    12    14 ar
   25    12    25 1
   26    13    14 ar
   27    13    26 1
   28    14    27 1
@<TRIPOS>SUBSTRUCTURE
1   ****   1
@<TRIPOS>MOLECULE
1xid
19  19  1  0  0
SMALL
FORMAL_CHARGES
@<TRIPOS>ATOM
    1 C1         0.6690    -0.9878    -0.0029 C.2        1 ****  0
    2 C2        -0.7427    -0.9846    -0.0005 C.2        1 ****  0
    3 C3        -1.1578     0.2596    -0.0090 C.2        1 ****  0
    4 C4         0.0085     1.2194    -0.0236 C.3        1 ****  0
    5 C5        -0.8909     1.4038     1.2476 C.3        1 ****  0
    6 C6        -1.2930     2.9190     1.3014 C.3        1 ****  0
    7 O1         1.3587    -2.0125     0.0058 O.2        1 ****  0
    8 O2        -1.5564    -2.1076     0.0134 O.3        1 ****  0
    9 O3        -2.4611     0.6368    -0.0030 O.2        1 ****  -1
   10 O4         1.2071     0.3204    -0.0152 O.3        1 ****  0
   11 O5         0.0203     1.2017     2.4017 O.3        1 ****  0
   12 O6        -1.3045     3.7054     2.4951 O.3        1 ****  0
   13 H1        -0.0061     1.9099    -0.8797 H          1 ****  0
   14 H2        -1.7696     0.7424     1.2324 H          1 ****  0
   15 H3        -1.3178     3.5833     0.4250 H          1 ****  0
   16 H4        -2.1743     2.2609     1.2882 H          1 ****  0
   17 H5        -1.2256    -2.5987     0.8068 H          1 ****  0
   18 H6         0.8460     0.6559     2.3797 H          1 ****  0
   19 H7        -0.5125     4.2992     2.5082 H          1 ****  0
@<TRIPOS>BOND
    1     1     2 1
    2     1     7 2
    3     1    10 1
    4     2     3 2
    5     2     8 1
    6     3     4 1
    7     3     9 1
    8     4     5 1
    9     4    10 1
   10     4    13 1
   11     5     6 1
   12     5    11 1
   13     5    14 1
   14     6    12 1
   15     6    15 1
   16     6    16 1
   17     8    17 1
   18    11    18 1
   19    12    19 1
@<TRIPOS>SUBSTRUCTURE
1   ****   1
@<TRIPOS>MOLECULE
1xie
23  23  1  0  0
SMALL
FORMAL_CHARGES
@<TRIPOS>ATOM
    1 C1         1.2277    -0.6761     0.2455 C.3        1 ****  0
    2 C2        -0.0044    -1.4221     0.8364 C.3        1 ****  0
    3 C3        -1.2480    -0.7224    -0.8409 C.3        1 ****  0
    4 C4        -1.2207     0.7011     0.8480 C.3        1 ****  0
    5 C5         0.0442     1.3945     0.2476 C.3        1 ****  0
    6 C6         0.0582     1.4388     1.7863 C.3        1 ****  0
    7 O1         0.0208    -2.7876     0.2237 O.3        1 ****  0
    8 O2        -2.4332    -1.4052    -0.2165 O.3        1 ****  0
    9 O3        -2.3879     1.4090     0.2350 O.3        1 ****  0
   10 O4         1.2034     0.6838    -0.2394 O.3        1 ****  0
   11 O5         0.0253     0.1053     2.3005 O.3        1 ****  0
   12 H1         2.1398    -1.1753    -0.1135 H          1 ****  0
   13 H2         1.2270    -0.6724     1.3455 H          1 ****  0
   14 H3         0.0003    -1.4005     1.9362 H          1 ****  0
   15 H4        -1.2336    -0.7085    -1.9407 H          1 ****  0
   16 H5        -1.1996     0.6961     1.9478 H          1 ****  0
   17 H6         0.0696     2.4252    -0.1359 H          1 ****  0
   18 H7        -0.8219     1.9918     2.1464 H          1 ****  0
   19 H8         0.9739     1.9417     2.1306 H          1 ****  0
   20 H9         0.0188    -2.7785     1.2136 H          1 ****  0
   21 H10       -2.4269    -2.3426     0.1016 H          1 ****  0
   22 H11       -2.3768     1.4096     1.2249 H          1 ****  0
   23 H12        0.8173    -0.3937     1.9783 H          1 ****  0
@<TRIPOS>BOND
    1     1     2 1
    2     1    10 1
    3     1    12 1
    4     1    13 1
    5     2     3 1
    6     2     7 1
    7     2    14 1
    8     3     4 1
    9     3     8 1
   10     3    15 1
   11     4     5 1
   12     4     9 1
   13     4    16 1
   14     5     6 1
   15     5    10 1
   16     5    17 1
   17     6    11 1
   18     6    18 1
   19     6    19 1
   20     7    20 1
   21     8    21 1
   22     9    22 1
   23    11    23 1
@<TRIPOS>SUBSTRUCTURE
1   ****   1
@<TRIPOS>MOLECULE
1ydr
38  40  1  0  0
SMALL
FORMAL_CHARGES
@<TRIPOS>ATOM
    1 C1         0.9736    -0.6012     0.0931 C.ar       1 ****  0
    2 C2         0.7929     0.7609     0.2501 C.ar       1 ****  0
    3 C3        -0.4700     1.3355     0.2859 C.ar       1 ****  0
    4 C4        -1.5931     0.5276     0.1764 C.ar       1 ****  0
    5 C5        -1.4333    -0.8404     0.0598 C.ar       1 ****  0
    6 C6        -2.5550    -1.6643    -0.0021 C.ar       1 ****  0
    7 N1        -2.4219    -2.9804    -0.0842 N.ar       1 ****  0
    8 C7        -1.2237    -3.5544    -0.1181 C.ar       1 ****  0
    9 C8        -0.0619    -2.7860    -0.0729 C.ar       1 ****  0
   10 C9        -0.1664    -1.4111     0.0201 C.ar       1 ****  0
   11 S1         2.6232    -1.3871    -0.0195 S.O2       1 ****  0
   12 O1         2.7219    -2.3494     1.1498 O.2        1 ****  0
   13 O2         2.6263    -2.2414    -1.2730 O.2        1 ****  0
   14 N2         4.1617    -0.4628    -0.0358 N.am       1 ****  0
   15 C10        4.1682     0.6757    -1.1013 C.3        1 ****  0
   16 C11        3.2994     1.8702    -0.6890 C.3        1 ****  0
   17 C12        5.5930     1.3381    -0.9758 C.3        1 ****  0
   18 N3         6.7652     0.5839    -0.6004 N.4        1 ****  1
   19 C13        6.4798    -0.8401    -0.7802 C.3        1 ****  0
   20 C14        5.3415    -1.2690     0.1633 C.3        1 ****  0
   21 H1         1.6525     1.3907     0.3469 H          1 ****  0
   22 H2        -0.5769     2.3943     0.3972 H          1 ****  0
   23 H3        -2.5723     0.9591     0.1822 H          1 ****  0
   24 H4        -3.5330    -1.2306     0.0169 H          1 ****  0
   25 H5        -1.1501    -4.6200    -0.1810 H          1 ****  0
   26 H6         0.8992    -3.2548    -0.1097 H          1 ****  0
   27 H7         3.9490     0.3296    -2.1265 H          1 ****  0
   28 H8         2.3979     1.6348    -0.1279 H          1 ****  0
   29 H9         3.1564     1.4769    -1.6929 H          1 ****  0
   30 H10        3.5195     2.8568    -0.6819 H          1 ****  0
   31 H11        5.8171     2.3933    -0.9148 H          1 ****  0
   32 H12        5.3400     1.1117    -2.0046 H          1 ****  0
   33 H13        7.5437     0.8576    -1.2163 H          1 ****  0
   34 H14        7.0109     0.7780     0.3776 H          1 ****  0
   35 H15        7.3586    -1.4112    -0.5598 H          1 ****  0
   36 H16        6.1869    -1.0201    -1.7976 H          1 ****  0
   37 H17        5.1007    -2.3033    -0.0175 H          1 ****  0
   38 H18        5.6710    -1.1712     1.1871 H          1 ****  0
@<TRIPOS>BOND
    1     1     2 ar
    2     1    10 ar
    3     1    11 1
    4     2     3 ar
    5     2    21 1
    6     3     4 ar
    7     3    22 1
    8     4     5 ar
    9     4    23 1
   10     5     6 ar
   11     5    10 ar
   12     6     7 ar
   13     6    24 1
   14     7     8 ar
   15     8     9 ar
   16     8    25 1
   17     9    10 ar
   18     9    26 1
   19    11    12 2
   20    11    13 2
   21    11    14 am
   22    14    15 1
   23    14    20 1
   24    15    16 1
   25    15    17 1
   26    15    27 1
   27    16    28 1
   28    16    29 1
   29    16    30 1
   30    17    18 1
   31    17    31 1
   32    17    32 1
   33    18    19 1
   34    18    33 1
   35    18    34 1
   36    19    20 1
   37    19    35 1
   38    19    36 1
   39    20    37 1
   40    20    38 1
@<TRIPOS>SUBSTRUCTURE
1   ****   1
@<TRIPOS>MOLECULE
1ydt
48  50  1  0  0
SMALL
FORMAL_CHARGES
@<TRIPOS>ATOM
    1 C1         1.1829    -0.6805    -0.0001 C.ar       1 ****  0
    2 C2         1.1771     0.7093     0.0000 C.ar       1 ****  0
    3 C3        -0.0301     1.3990     0.0001 C.ar       1 ****  0
    4 C4        -1.2322     0.7006    -0.0001 C.ar       1 ****  0
    5 C5        -1.2234    -0.6889    -0.0002 C.ar       1 ****  0
    6 C6        -2.4143    -1.4044    -0.0004 C.ar       1 ****  0
    7 N1        -2.4019    -2.7336    -0.0005 N.ar       1 ****  0
    8 C7        -1.2625    -3.4188    -0.0005 C.ar       1 ****  0
    9 C8        -0.0375    -2.7621    -0.0004 C.ar       1 ****  0
   10 C9        -0.0194    -1.3753    -0.0002 C.ar       1 ****  0
   11 S1         2.7146    -1.5639    -0.0001 S.O2       1 ****  0
   12 O1         2.7440    -2.5109     1.1842 O.2        1 ****  0
   13 O2         2.8225    -2.3727    -1.2784 O.2        1 ****  0
   14 N2         4.0418    -0.4913     0.1011 N.am       1 ****  0
   15 C10        5.3754    -1.0349     0.1626 C.3        1 ****  0
   16 C11        6.4294     0.0927     0.1780 C.3        1 ****  0
   17 N3         7.7799    -0.5056     0.2354 N.4        1 ****  1
   18 C12        8.7996     0.5578     0.2496 C.3        1 ****  0
   19 C13       10.1786    -0.0486     0.3069 C.2        1 ****  0
   20 C14       11.2482     0.7464     0.3339 C.2        1 ****  0
   21 C15       12.5992     0.1780     0.3896 C.ar       1 ****  0
   22 C16       12.7794    -1.1997     0.4136 C.ar       1 ****  0
   23 C17       14.0620    -1.7315     0.4665 C.ar       1 ****  0
   24 C18       15.1636    -0.8847     0.4955 C.ar       1 ****  0
   25 Br1       16.9137    -1.6109     0.5678 Br         1 ****  0
   26 C19       14.9839     0.4933     0.4716 C.ar       1 ****  0
   27 C20       13.7012     1.0251     0.4186 C.ar       1 ****  0
   28 H1         2.1274     1.2634     0.0001 H          1 ****  0
   29 H2        -0.0342     2.4990     0.0002 H          1 ****  0
   30 H3        -2.1873     1.2462    -0.0000 H          1 ****  0
   31 H4        -3.3742    -0.8672    -0.0004 H          1 ****  0
   32 H5        -1.2896    -4.5184    -0.0006 H          1 ****  0
   33 H6         0.9026    -3.3332    -0.0004 H          1 ****  0
   34 H7         3.8909     0.5274     0.1179 H          1 ****  0
   35 H8         5.4784    -1.6404     1.0751 H          1 ****  0
   36 H9         5.5462    -1.6791    -0.7125 H          1 ****  0
   37 H10        6.2733     0.7310     1.0602 H          1 ****  0
   38 H11        6.3344     0.6970    -0.7362 H          1 ****  0
   39 H12        7.8666    -1.0737     1.0902 H          1 ****  0
   40 H13        7.9245    -1.1066    -0.5885 H          1 ****  0
   41 H14        8.7061     1.1656    -0.6624 H          1 ****  0
   42 H15        8.6469     1.1998     1.1296 H          1 ****  0
   43 H16       10.3015    -1.1415     0.3264 H          1 ****  0
   44 H17       11.1166     1.8383     0.3142 H          1 ****  0
   45 H18       11.9068    -1.8691     0.3906 H          1 ****  0
   46 H19       14.2054    -2.8219     0.4855 H          1 ****  0
   47 H20       15.8566     1.1626     0.4945 H          1 ****  0
   48 H21       13.5578     2.1156     0.3996 H          1 ****  0
@<TRIPOS>BOND
    1     1     2 ar
    2     1    10 ar
    3     1    11 1
    4     2     3 ar
    5     2    28 1
    6     3     4 ar
    7     3    29 1
    8     4     5 ar
    9     4    30 1
   10     5     6 ar
   11     5    10 ar
   12     6     7 ar
   13     6    31 1
   14     7     8 ar
   15     8     9 ar
   16     8    32 1
   17     9    10 ar
   18     9    33 1
   19    11    12 2
   20    11    13 2
   21    11    14 am
   22    14    15 1
   23    14    34 1
   24    15    16 1
   25    15    35 1
   26    15    36 1
   27    16    17 1
   28    16    37 1
   29    16    38 1
   30    17    18 1
   31    17    39 1
   32    17    40 1
   33    18    19 1
   34    18    41 1
   35    18    42 1
   36    19    20 2
   37    19    43 1
   38    20    21 1
   39    20    44 1
   40    21    22 ar
   41    21    27 ar
   42    22    23 ar
   43    22    45 1
   44    23    24 ar
   45    23    46 1
   46    24    25 1
   47    24    26 ar
   48    26    27 ar
   49    26    47 1
   50    27    48 1
@<TRIPOS>SUBSTRUCTURE
1   ****   1
@<TRIPOS>MOLECULE
1yee
39  39  1  0  0
SMALL
FORMAL_CHARGES
@<TRIPOS>ATOM
    1 N1        -2.4198     1.3971    -0.0001 N.pl3      1 ****  0.0000
    2 O1        -3.5379     0.7504    -0.0002 O.2        1 ****  0.0000
    3 O2        -2.4208     2.5730     0.0001 O.2        1 ****  0.0000
    4 C1         1.1961    -0.6908    -0.0001 C.ar       1 ****  0
    5 C2         1.1969     0.6991     0.0001 C.ar       1 ****  0
    6 C3        -0.0065     1.3941     0.0001 C.ar       1 ****  0
    7 C4        -1.2101     0.6988    -0.0001 C.ar       1 ****  0
    8 C5        -1.2107    -0.6909    -0.0003 C.ar       1 ****  0
    9 C6        -0.0073    -1.3859    -0.0003 C.ar       1 ****  0
   10 C7         2.4930    -1.4402    -0.0001 C.3        1 ****  0
   11 O3         3.5857    -0.5178    -0.0472 O.3        1 ****  0
   12 P1         4.9174    -1.3111    -0.0385 P.3        1 ****  0
   13 O4         4.9590    -2.1458    -1.1368 O.2        1 ****  0
   14 O5         4.9979    -2.1402     1.2282 O.2        1 ****  -1
   15 C8         6.2035    -0.2602    -0.0934 C.3        1 ****  0
   16 C9         7.5218    -1.0622    -0.0881 C.3        1 ****  0
   17 C10        8.7218    -0.0932    -0.1290 C.3        1 ****  0
   18 C11       10.0050    -0.8783    -0.1303 C.2        1 ****  0
   19 O6         9.9728    -2.1139    -0.1136 O.2        1 ****  0
   20 N2        11.2351    -0.2136    -0.1513 N.am       1 ****  0
   21 C12       12.4565    -0.9693    -0.1583 C.3        1 ****  0
   22 C13       13.6316    -0.0332    -0.1622 C.2        1 ****  0.0000
   23 O7        14.7823    -0.4854    -0.1765 O.co2      1 ****  -0.50
   24 O8        13.4304     1.3098    -0.1501 O.co2      1 ****  -0.50
   25 H1         2.1497     1.2488     0.0003 H          1 ****  0
   26 H2        -0.0066     2.4941     0.0003 H          1 ****  0
   27 H3        -2.1635    -1.2407    -0.0004 H          1 ****  0
   28 H4        -0.0072    -2.4859    -0.0004 H          1 ****  0
   29 H5         2.5350    -2.1010    -0.8786 H          1 ****  0
   30 H6         2.5657    -2.0461     0.9151 H          1 ****  0
   31 H7         6.1454     0.3431    -1.0113 H          1 ****  0
   32 H8         6.1747     0.4026     0.7841 H          1 ****  0
   33 H9         7.5757    -1.6722     0.8257 H          1 ****  0
   34 H10        7.5543    -1.7210    -0.9684 H          1 ****  0
   35 H11        8.6951     0.5622     0.7540 H          1 ****  0
   36 H12        8.6671     0.5196    -1.0409 H          1 ****  0
   37 H13       11.2652     0.8159    -0.1617 H          1 ****  0
   38 H14       12.4988    -1.6052     0.7383 H          1 ****  0
   39 H15       12.4911    -1.6029    -1.0568 H          1 ****  0
@<TRIPOS>BOND
    1     1     2 2
    2     1     3 2
    3     1     7 1
    4     4     5 ar
    5     4     9 ar
    6     4    10 1
    7     5     6 ar
    8     5    25 1
    9     6     7 ar
   10     6    26 1
   11     7     8 ar
   12     8     9 ar
   13     8    27 1
   14     9    28 1
   15    10    11 1
   16    10    29 1
   17    10    30 1
   18    12    11 1
   19    12    13 2
   20    12    14 1
   21    12    15 1
   22    15    16 1
   23    15    31 1
   24    15    32 1
   25    16    17 1
   26    16    33 1
   27    16    34 1
   28    17    18 1
   29    17    35 1
   30    17    36 1
   31    18    19 2
   32    18    20 am
   33    20    21 1
   34    20    37 1
   35    21    22 1
   36    21    38 1
   37    21    39 1
   38    22    23 ar
   39    22    24 ar
@<TRIPOS>SUBSTRUCTURE
1   ****   1
@<TRIPOS>MOLECULE
25c8
52  53  1  0  0
SMALL
FORMAL_CHARGES
@<TRIPOS>ATOM
    1 N1         1.2316    -0.7118     0.2736 N.4        1 ****  1
    2 C1         1.2474     0.6811    -0.2297 C.3        1 ****  0
    3 C2        -0.0093     1.4431     0.2434 C.3        1 ****  0
    4 C3        -1.2623     0.7291    -0.2885 C.3        1 ****  0
    5 C4        -1.2551    -0.7135     0.2424 C.3        1 ****  0
    6 C5         0.0331    -1.4210    -0.2307 C.3        1 ****  0
    7 C6         1.2289    -0.7112     1.7458 C.3        1 ****  0
    8 C7         2.4366    -1.4078    -0.2171 C.3        1 ****  0
    9 C8         2.4545    -2.8622     0.3008 C.3        1 ****  0
   10 C9         3.6913    -3.5678    -0.1850 C.ar       1 ****  0
   11 C10        4.5929    -2.9066    -1.0108 C.ar       1 ****  0
   12 C11        5.7379    -3.5591    -1.4517 C.ar       1 ****  0
   13 C12        5.9808    -4.8723    -1.0665 C.ar       1 ****  0
   14 C13        5.0793    -5.5332    -0.2408 C.ar       1 ****  0
   15 C14        3.9342    -4.8807     0.2001 C.ar       1 ****  0
   16 N2         7.1479    -5.5367    -1.5161 N.am       1 ****  0
   17 C15        8.1301    -4.9554    -2.3592 C.2        1 ****  0
   18 O1         8.0315    -3.7939    -2.7716 O.2        1 ****  0
   19 C16        9.3199    -5.7831    -2.7563 C.3        1 ****  0
   20 C17       10.2672    -4.9789    -3.6687 C.3        1 ****  0
   21 C18       11.4653    -5.8770    -4.0422 C.3        1 ****  0
   22 C19       12.4205    -5.1357    -4.9338 C.2        1 ****  0.0000
   23 O2        13.4458    -5.6964    -5.3381 O.co2      1 ****  -0.50
   24 O3        12.1609    -3.8534    -5.2961 O.co2      1 ****  -0.50
   25 H1         2.1457     1.1933     0.1452 H          1 ****  0
   26 H2         1.2738     0.6713    -1.3294 H          1 ****  0
   27 H3         0.0172     2.4730    -0.1421 H          1 ****  0
   28 H4        -0.0362     1.4609     1.3430 H          1 ****  0
   29 H5        -2.1637     1.2491     0.0679 H          1 ****  0
   30 H6        -1.2437     0.7175    -1.3883 H          1 ****  0
   31 H7        -2.1326    -1.2527    -0.1439 H          1 ****  0
   32 H8        -1.2839    -0.7007     1.3419 H          1 ****  0
   33 H9         0.0375    -2.4557     0.1427 H          1 ****  0
   34 H10        0.0560    -1.4374    -1.3304 H          1 ****  0
   35 H11        0.3363    -0.1805     2.1086 H          1 ****  0
   36 H12        2.1312    -0.1996     2.1120 H          1 ****  0
   37 H13        1.2172    -1.7467     2.1166 H          1 ****  0
   38 H14        2.4335    -1.4121    -1.3170 H          1 ****  0
   39 H15        3.3343    -0.8822     0.1406 H          1 ****  0
   40 H16        2.4451    -2.8586     1.4008 H          1 ****  0
   41 H17        1.5640    -3.3930    -0.0669 H          1 ****  0
   42 H18        4.4001    -1.8673    -1.3153 H          1 ****  0
   43 H19        6.4518    -3.0365    -2.1053 H          1 ****  0
   44 H20        5.2720    -6.5725     0.0637 H          1 ****  0
   45 H21        3.2203    -5.4034     0.8537 H          1 ****  0
   46 H22        7.2938    -6.5093    -1.2099 H          1 ****  0
   47 H23        9.8641    -6.0940    -1.8523 H          1 ****  0
   48 H24        8.9768    -6.6810    -3.2912 H          1 ****  0
   49 H25        9.7331    -4.6782    -4.5821 H          1 ****  0
   50 H26       10.6276    -4.0875    -3.1343 H          1 ****  0
   51 H27       11.9890    -6.1856    -3.1254 H          1 ****  0
   52 H28       11.1009    -6.7732    -4.5657 H          1 ****  0
@<TRIPOS>BOND
    1     1     2 1
    2     1     6 1
    3     1     7 1
    4     1     8 1
    5     2     3 1
    6     2    25 1
    7     2    26 1
    8     3     4 1
    9     3    27 1
   10     3    28 1
   11     4     5 1
   12     4    29 1
   13     4    30 1
   14     5     6 1
   15     5    31 1
   16     5    32 1
   17     6    33 1
   18     6    34 1
   19     7    35 1
   20     7    36 1
   21     7    37 1
   22     8     9 1
   23     8    38 1
   24     8    39 1
   25     9    10 1
   26     9    40 1
   27     9    41 1
   28    10    11 ar
   29    10    15 ar
   30    11    12 ar
   31    11    42 1
   32    12    13 ar
   33    12    43 1
   34    13    14 ar
   35    13    16 1
   36    14    15 ar
   37    14    44 1
   38    15    45 1
   39    16    17 am
   40    16    46 1
   41    17    18 2
   42    17    19 1
   43    19    20 1
   44    19    47 1
   45    19    48 1
   46    20    21 1
   47    20    49 1
   48    20    50 1
   49    21    22 1
   50    21    51 1
   51    21    52 1
   52    22    23 ar
   53    22    24 ar
@<TRIPOS>SUBSTRUCTURE
1   ****   1
@<TRIPOS>MOLECULE
2aad
36  38  1  0  0
SMALL
FORMAL_CHARGES
@<TRIPOS>ATOM
    1 P1        -1.4640    -1.0017    -2.4234 P.3        1 ****  0
    2 O1        -1.4793    -1.5786    -3.8223 O.2        1 ****  -1
    3 O2        -0.0271    -0.7374    -2.0483 O.2        1 ****  -1
    4 O3        -2.1232     0.2108    -2.4460 O.2        1 ****  0
    5 O4         1.5759    -5.5520    -2.5955 O.3        1 ****  0
    6 C1         0.3155    -6.1878    -2.3877 C.3        1 ****  0
    7 C2        -0.6276    -5.2511    -1.6052 C.3        1 ****  0
    8 O5        -0.1256    -4.8930    -0.2690 O.3        1 ****  0
    9 C3        -0.3219    -3.8051    -1.3524 C.3        1 ****  0
   10 O6         0.3207    -3.1566    -2.4973 O.3        1 ****  0
   11 C4        -0.8504    -2.6544    -1.3057 C.3        1 ****  0
   12 O7        -2.2418    -1.9770    -1.4007 O.3        1 ****  0
   13 C5        -0.7597    -3.5971     0.0513 C.3        1 ****  0
   14 N1         0.2727    -2.6250     0.2107 N.ar       1 ****  0
   15 C6         1.5902    -2.8340     0.1394 C.ar       1 ****  0
   16 N2         2.2186    -1.6515     0.2261 N.ar       1 ****  0
   17 C7         1.2754    -0.7297     0.3514 C.ar       1 ****  0
   18 C8         1.3512     0.6826     0.3673 C.2        1 ****  0
   19 O8         2.4307     1.2802     0.2971 O.2        1 ****  0
   20 N3         0.1153     1.3636     0.3475 N.am       1 ****  0
   21 C9        -1.1230     0.6210     0.4045 C.2        1 ****  0
   22 N4        -2.3687     1.3167     0.3815 N.3        1 ****  0
   23 N5        -1.1357    -0.6571     0.4446 N.2        1 ****  0
   24 C10        0.0551    -1.3440     0.3873 C.ar       1 ****  0
   25 H1         1.9354    -5.2394    -1.7317 H          1 ****  0
   26 H2        -0.1258    -6.4254    -3.3384 H          1 ****  0
   27 H3         0.4594    -7.0929    -1.8317 H          1 ****  0
   28 H4        -1.6020    -5.7432    -1.4743 H          1 ****  0
   29 H5         0.2352    -3.7100    -0.4104 H          1 ****  0
   30 H6         0.8488    -3.5639    -3.2183 H          1 ****  0
   31 H7        -0.0005    -1.9688    -1.4176 H          1 ****  0
   32 H8        -1.3534    -3.6079     0.9762 H          1 ****  0
   33 H9         2.0656    -3.7864     0.0311 H          1 ****  0
   34 H10        0.0942     2.3535     0.2804 H          1 ****  0
   35 H11       -2.3846     2.3413     0.3079 H          1 ****  0
   36 H12       -3.2529     0.7852     0.3914 H          1 ****  0
@<TRIPOS>BOND
    1     1     2 1
    2     1     3 1
    3     1     4 2
    4     1    12 1
    5     5     6 1
    6     5    25 1
    7     6    26 1
    8     6    27 1
    9     7     6 1
   10     7     8 1
   11     7     9 1
   12     7    28 1
   13     9    10 1
   14     9    11 1
   15     9    29 1
   16    10    30 1
   17    11    12 1
   18    11    13 1
   19    11    31 1
   20    13     8 1
   21    13    14 1
   22    13    32 1
   23    14    15 ar
   24    14    24 ar
   25    15    16 ar
   26    15    33 1
   27    16    17 ar
   28    17    18 1
   29    17    24 ar
   30    18    19 2
   31    18    20 am
   32    20    21 1
   33    20    34 1
   34    21    22 1
   35    21    23 2
   36    22    35 1
   37    22    36 1
   38    23    24 1
@<TRIPOS>SUBSTRUCTURE
1   ****   1
@<TRIPOS>MOLECULE
2ack
28  28  1  0  0
SMALL
FORMAL_CHARGES
@<TRIPOS>ATOM
    1 C1         1.1990    -0.6803    -0.0003 C.ar       1 ****  0
    2 C2         1.1997     0.7095    -0.0000 C.ar       1 ****  0
    3 C3        -0.0034     1.4053     0.0002 C.ar       1 ****  0
    4 C4        -1.2072     0.7108     0.0001 C.ar       1 ****  0
    5 C5        -1.2079    -0.6790    -0.0002 C.ar       1 ****  0
    6 C6        -0.0048    -1.3747    -0.0004 C.ar       1 ****  0
    7 O1        -2.4095     1.4054     0.0003 O.3        1 ****  0
    8 N1         2.4437     1.4265     0.0001 N.4        1 ****  1
    9 C7         2.3623     2.4942     1.0120 C.3        1 ****  0
   10 C8         2.3895     2.3638    -1.1341 C.3        1 ****  0
   11 C9         3.6603     0.5930     0.0409 C.3        1 ****  0
   12 C10        4.9157     1.4888     0.0086 C.3        1 ****  0
   13 H1         2.1514    -1.2307    -0.0005 H          1 ****  0
   14 H2        -0.0028     2.5053     0.0004 H          1 ****  0
   15 H3        -2.1608    -1.2285    -0.0002 H          1 ****  0
   16 H4        -0.0054    -2.4747    -0.0006 H          1 ****  0
   17 H5        -2.3655     1.9922    -0.7958 H          1 ****  0
   18 H6         2.1923     2.0578     2.0073 H          1 ****  0
   19 H7         1.5427     3.1851     0.7656 H          1 ****  0
   20 H8         3.3107     3.0514     1.0218 H          1 ****  0
   21 H9         1.5596     3.0754    -1.0126 H          1 ****  0
   22 H10        2.2832     1.8201    -2.0845 H          1 ****  0
   23 H11        3.3327     2.9293    -1.1597 H          1 ****  0
   24 H12        3.6626    -0.0051     0.9641 H          1 ****  0
   25 H13        3.6714    -0.0817    -0.8278 H          1 ****  0
   26 H14        4.9038     2.1625     0.8781 H          1 ****  0
   27 H15        4.9119     2.0865    -0.9149 H          1 ****  0
   28 H16        5.8197     0.8629     0.0391 H          1 ****  0
@<TRIPOS>BOND
    1     1     2 ar
    2     1     6 ar
    3     1    13 1
    4     2     3 ar
    5     2     8 1
    6     3     4 ar
    7     3    14 1
    8     4     5 ar
    9     4     7 1
   10     5     6 ar
   11     5    15 1
   12     6    16 1
   13     7    17 1
   14     8     9 1
   15     8    10 1
   16     8    11 1
   17     9    18 1
   18     9    19 1
   19     9    20 1
   20    10    21 1
   21    10    22 1
   22    10    23 1
   23    11    12 1
   24    11    24 1
   25    11    25 1
   26    12    26 1
   27    12    27 1
   28    12    28 1
@<TRIPOS>SUBSTRUCTURE
1   ****   1
@<TRIPOS>MOLECULE
2ada
33  35  1  0  0
SMALL
FORMAL_CHARGES
@<TRIPOS>ATOM
    1 N1         1.2892    -0.6564    -0.1306 N.3        1 ****  0
    2 C1         0.1354    -1.2844     0.5268 C.2        1 ****  0
    3 N2        -0.9494    -0.6372     0.7235 N.2        1 ****  0
    4 C2        -1.0361     0.6659     0.2654 C.ar       1 ****  0
    5 C3         0.0851     1.3882    -0.0870 C.ar       1 ****  0
    6 C4         1.4209     0.8183     0.0043 C.3        1 ****  0
    7 O1         2.2448     1.3373    -1.0353 O.3        1 ****  0
    8 N3        -0.2870     2.5841    -0.4924 N.ar       1 ****  0
    9 C5        -1.6232     2.6158    -0.4284 C.ar       1 ****  0
   10 N4        -2.0756     1.4393     0.0119 N.ar       1 ****  0
   11 C6        -3.5274     1.1291     0.0488 C.3        1 ****  0
   12 C7        -4.0242     0.3541    -1.2190 C.3        1 ****  0
   13 O2        -5.4279     0.3038    -1.2271 O.3        1 ****  0
   14 C8        -3.3961    -0.9781    -0.9042 C.3        1 ****  0
   15 O3        -3.7057    -2.0856    -1.7465 O.3        1 ****  0
   16 C9        -4.5589    -0.5689     0.1017 C.3        1 ****  0
   17 O4        -3.8556     0.2080     1.1508 O.3        1 ****  0
   18 C10       -5.1604    -1.9192     0.8534 C.3        1 ****  0
   19 O5        -6.2900    -1.3891     0.1867 O.3        1 ****  0
   20 H1         2.1621    -1.1987    -0.0853 H          1 ****  0
   21 H2         0.2042    -2.3031     0.8471 H          1 ****  0
   22 H3         1.8475     1.0616     0.9868 H          1 ****  0
   23 H4         1.8300     1.1216    -1.9117 H          1 ****  0
   24 H5        -2.2346     3.4543    -0.6896 H          1 ****  0
   25 H6        -4.0522     2.0912     0.1376 H          1 ****  0
   26 H7        -3.6823     0.7951    -2.1666 H          1 ****  0
   27 H8        -5.7860     1.2159    -1.3512 H          1 ****  0
   28 H9        -2.3437    -0.7907    -0.9557 H          1 ****  0
   29 H10       -3.4173    -1.8873    -2.6685 H          1 ****  0
   30 H11       -5.3236     0.0407    -0.3963 H          1 ****  0
   31 H12       -5.3663    -1.9286     1.9316 H          1 ****  0
   32 H13       -5.0515    -2.9764     0.5675 H          1 ****  0
   33 H14       -6.2403    -1.6337    -0.7727 H          1 ****  0
@<TRIPOS>BOND
    1     1     2 1
    2     1     6 1
    3     1    20 1
    4     2     3 2
    5     2    21 1
    6     3     4 1
    7     4     5 ar
    8     4    10 ar
    9     5     6 1
   10     5     8 ar
   11     6     7 1
   12     6    22 1
   13     7    23 1
   14     8     9 ar
   15     9    10 ar
   16     9    24 1
   17    10    11 1
   18    11    12 1
   19    11    17 1
   20    11    25 1
   21    12    13 1
   22    12    14 1
   23    12    26 1
   24    13    27 1
   25    14    15 1
   26    14    16 1
   27    14    28 1
   28    15    29 1
   29    16    17 1
   30    16    18 1
   31    16    30 1
   32    18    19 1
   33    18    31 1
   34    18    32 1
   35    19    33 1
@<TRIPOS>SUBSTRUCTURE
1   ****   1
@<TRIPOS>MOLECULE
2ak3
35  37  1  0  0
SMALL
FORMAL_CHARGES
@<TRIPOS>ATOM
    1 P1         6.5355     0.6726     3.4708 P.3        1 ****  0
    2 O1         7.8259     0.9972     2.7437 O.2        1 ****  -1
    3 O2         6.5469     1.3278     4.8383 O.2        1 ****  -1
    4 O3         6.4206    -0.6962     3.6164 O.2        1 ****  0
    5 O4         5.3356     1.2085     2.6522 O.3        1 ****  0
    6 C1         5.4529     2.6264     2.5189 C.3        1 ****  0
    7 C2         4.2931     3.1591     1.6620 C.3        1 ****  0
    8 O5         4.2556     2.5829     0.3334 O.3        1 ****  0
    9 C3         2.9348     2.8442     2.2479 C.3        1 ****  0
   10 O6         2.6806     3.6069     3.4293 O.3        1 ****  0
   11 C4         2.1066     3.2918     1.0817 C.3        1 ****  0
   12 O7         2.3923     4.6769     0.8645 O.3        1 ****  0
   13 C5         2.8356     2.4744     0.0005 C.3        1 ****  0
   14 N1         2.4002     1.1104     0.0001 N.ar       1 ****  0
   15 C6         3.1945     0.0364    -0.0002 C.ar       1 ****  0
   16 N2         2.4370    -1.0700    -0.0003 N.ar       1 ****  0
   17 C7         1.1751    -0.6620    -0.0002 C.ar       1 ****  0
   18 C8        -0.0050    -1.3788    -0.0004 C.ar       1 ****  0
   19 N3        -0.0166    -2.8067    -0.0006 N.pl3      1 ****  0
   20 N4        -1.1333    -0.6714    -0.0002 N.ar       1 ****  0
   21 C9        -1.1200     0.6680     0.0000 C.ar       1 ****  0
   22 N5         0.0119     1.3757     0.0002 N.ar       1 ****  0
   23 C10        1.1480     0.7004     0.0000 C.ar       1 ****  0
   24 H1         6.4091     2.8722     2.0338 H          1 ****  0
   25 H2         5.4167     3.0926     3.5145 H          1 ****  0
   26 H3         4.4857     4.2416     1.6306 H          1 ****  0
   27 H4         2.7682     1.8103     2.5845 H          1 ****  0
   28 H5         2.7276     4.5687     3.1994 H          1 ****  0
   29 H6         1.0156     3.1688     1.1496 H          1 ****  0
   30 H7         3.3510     4.8042     0.6527 H          1 ****  0
   31 H8         2.6255     2.8523    -1.0110 H          1 ****  0
   32 H9         4.2943     0.0564    -0.0002 H          1 ****  0
   33 H10        0.8824    -3.3095    -0.0007 H          1 ****  0
   34 H11       -0.9051    -3.3276    -0.0007 H          1 ****  0
   35 H12       -2.0796     1.2059     0.0001 H          1 ****  0
@<TRIPOS>BOND
    1     1     2 1
    2     1     3 1
    3     1     4 2
    4     1     5 1
    5     5     6 1
    6     6    24 1
    7     6    25 1
    8     7     6 1
    9     7     8 1
   10     7     9 1
   11     7    26 1
   12     8    13 1
   13     9    10 1
   14     9    11 1
   15     9    27 1
   16    10    28 1
   17    11    12 1
   18    11    13 1
   19    11    29 1
   20    12    30 1
   21    13    14 1
   22    13    31 1
   23    14    15 ar
   24    14    23 ar
   25    15    16 ar
   26    15    32 1
   27    16    17 ar
   28    17    18 ar
   29    17    23 ar
   30    18    19 1
   31    18    20 ar
   32    19    33 1
   33    19    34 1
   34    20    21 ar
   35    21    22 ar
   36    21    35 1
   37    22    23 ar
@<TRIPOS>SUBSTRUCTURE
1   ****   1
@<TRIPOS>MOLECULE
2cht
26  27  1  0  0
SMALL
FORMAL_CHARGES
@<TRIPOS>ATOM
    1 C1         0.8599    -0.6041    -1.6342 C.2        1 ****  0
    2 C2        -0.1302    -1.2756    -1.0398 C.2        1 ****  0
    3 C3        -0.8971    -0.7086     0.1301 C.3        1 ****  0
    4 C4        -0.8195     0.8244     0.1447 C.3        1 ****  0
    5 C5         1.2714     0.7899    -1.2032 C.3        1 ****  0
    6 C6         0.6570     1.1910     0.1692 C.3        1 ****  0
    7 C7        -0.3071    -1.2217     1.4674 C.3        1 ****  0
    8 C8         1.1602    -0.7483     1.6681 C.3        1 ****  0
    9 C9        -2.3337    -1.1444     0.0438 C.2        1 ****  0.0000
   10 C10        2.2192    -1.6208     1.0568 C.2        1 ****  0.0000
   11 O1         0.7604     1.6838    -2.1969 O.3        1 ****  0
   12 O2         2.2939    -1.7290    -0.1723 O.co2      1 ****  -0.50
   13 O3         3.0879    -2.2966     1.8526 O.co2      1 ****  -0.50
   14 O4        -3.0108    -0.8418    -0.9457 O.co2      1 ****  -0.50
   15 O5        -2.8874    -1.8692     1.0498 O.co2      1 ****  -0.50
   16 O6         1.3123     0.6685     1.3905 O.3        1 ****  0
   17 H1         1.3968    -1.0806    -2.4677 H          1 ****  0
   18 H2        -0.3954    -2.2749    -1.4154 H          1 ****  0
   19 H3        -1.3151     1.2153     1.0455 H          1 ****  0
   20 H4        -1.2889     1.2302    -0.7636 H          1 ****  0
   21 H5         2.3658     0.8296    -1.0996 H          1 ****  0
   22 H6         0.8264     2.2738     0.2626 H          1 ****  0
   23 H7        -0.3353    -2.3213     1.4774 H          1 ****  0
   24 H8        -0.9227    -0.8503     2.2999 H          1 ****  0
   25 H9         1.3580    -0.8820     2.7419 H          1 ****  0
   26 H10       -0.2274     1.6355    -2.2425 H          1 ****  0
@<TRIPOS>BOND
    1     1     2 2
    2     1     5 1
    3     1    17 1
    4     2     3 1
    5     2    18 1
    6     3     4 1
    7     3     7 1
    8     3     9 1
    9     4    19 1
   10     4    20 1
   11     5     6 1
   12     5    11 1
   13     5    21 1
   14     6     4 1
   15     6    16 1
   16     6    22 1
   17     7     8 1
   18     7    23 1
   19     7    24 1
   20     8    10 1
   21     8    16 1
   22     8    25 1
   23     9    14 ar
   24     9    15 ar
   25    10    12 ar
   26    10    13 ar
   27    11    26 1
@<TRIPOS>SUBSTRUCTURE
1   ****   1
@<TRIPOS>MOLECULE
2cmd
18  17  1  0  0
SMALL
FORMAL_CHARGES
@<TRIPOS>ATOM
    1 C1         1.4430     0.7493     0.0086 C.2        1 ****  0.0000
    2 O1         0.5304    -0.0566    -0.1898 O.co2      1 ****  -0.50
    3 O2         1.2980     2.0476    -0.3727 O.co2      1 ****  -0.50
    4 C2         2.6850     0.3206     0.7360 C.3        1 ****  0
    5 C3         3.8826    -0.8205     0.2372 C.3        1 ****  0
    6 O3         3.8441    -2.1972     0.6225 O.3        1 ****  0
    7 C4         5.1832     0.1923     0.6632 C.3        1 ****  0
    8 C5         6.4331     0.7071    -0.0060 C.2        1 ****  0.0000
    9 O4         7.4869     0.0729     0.0875 O.co2      1 ****  -0.50
   10 O5         6.4332     1.9259    -0.6107 O.co2      1 ****  -0.50
   11 C6         3.8438    -0.3166    -1.3722 C.2        1 ****  0.0000
   12 O6         3.7967    -1.5552    -1.2384 O.co2      1 ****  -0.50
   13 O7         3.8314     0.2230    -2.6129 O.co2      1 ****  -0.50
   14 H1         2.7841     0.9025     1.6642 H          1 ****  0
   15 H2         2.6131    -0.7485     0.9847 H          1 ****  0
   16 H3         4.0181     2.5049     0.2725 H          1 ****  0
   17 H4         5.2500    -0.9014     0.7599 H          1 ****  0
   18 H5         5.1057     0.6299     1.6694 H          1 ****  0
@<TRIPOS>BOND
    1     1     2 ar
    2     1     3 ar
    3     1     4 1
    4     4     5 1
    5     4    14 1
    6     4    15 1
    7     5     6 1
    8     5     7 1
    9     5    11 1
   10     6    16 1
   11     7     8 1
   12     7    17 1
   13     7    18 1
   14     8     9 ar
   15     8    10 ar
   16    11    12 ar
   17    11    13 ar
@<TRIPOS>SUBSTRUCTURE
1   ****   1
@<TRIPOS>MOLECULE
2cpp
27  28  1  0  0
SMALL
FORMAL_CHARGES
@<TRIPOS>ATOM
    1 C1         0.2917    -2.3168    -0.7569 C.3        1 ****  0
    2 C2        -0.3157    -3.7681    -1.1779 C.2        1 ****  0
    3 C3         0.2275     1.6648     0.5484 C.3        1 ****  0
    4 C4        -1.0614     0.7806    -0.1601 C.3        1 ****  0
    5 C5        -0.2722     0.5565    -0.9470 C.3        1 ****  0
    6 C6         0.3680    -0.4288     0.4190 C.3        1 ****  0
    7 C7        -0.8126    -0.9170    -0.3047 C.3        1 ****  0
    8 C8        -1.4406    -1.6358     0.9091 C.3        1 ****  0
    9 C9        -1.3735    -1.5282    -1.6025 C.3        1 ****  0
   10 C10        1.5842    -2.0907     0.2933 C.3        1 ****  0
   11 O1         2.7029     0.8084     0.2801 O.2        1 ****  0
   12 H1         0.1225     1.6925     1.6430 H          1 ****  0
   13 H2         0.3455     2.6404     0.0540 H          1 ****  0
   14 H3        -2.0538     1.1974     0.0667 H          1 ****  0
   15 H4         0.4337     1.3741    -1.1547 H          1 ****  0
   16 H5        -0.5892    -0.1206    -1.7539 H          1 ****  0
   17 H6         0.9367     0.2309     1.0909 H          1 ****  0
   18 H7        -0.4557    -1.0261     0.8371 H          1 ****  0
   19 H8        -1.0627    -1.1227     1.8057 H          1 ****  0
   20 H9        -1.0328    -2.6574     0.9123 H          1 ****  0
   21 H10       -2.5402    -1.6391     0.8779 H          1 ****  0
   22 H11       -0.9756    -2.5477    -1.7136 H          1 ****  0
   23 H12       -1.0380    -0.9182    -2.4541 H          1 ****  0
   24 H13       -2.4727    -1.5549    -1.5687 H          1 ****  0
   25 H14        1.5188    -1.9592     1.3835 H          1 ****  0
   26 H15        2.6461    -2.0331     0.0121 H          1 ****  0
   27 H16        1.1312    -3.0403    -0.0278 H          1 ****  0
@<TRIPOS>BOND
    1     1     2 1
    2     1     6 1
    3     1     7 1
    4     1    10 1
    5     2     3 1
    6     2    11 2
    7     3     4 1
    8     3    12 1
    9     3    13 1
   10     4     5 1
   11     4     7 1
   12     4    14 1
   13     5     6 1
   14     5    15 1
   15     5    16 1
   16     6    17 1
   17     6    18 1
   18     7     8 1
   19     7     9 1
   20     8    19 1
   21     8    20 1
   22     8    21 1
   23     9    22 1
   24     9    23 1
   25     9    24 1
   26    10    25 1
   27    10    26 1
   28    10    27 1
@<TRIPOS>SUBSTRUCTURE
1   ****   1
@<TRIPOS>MOLECULE
2ctc
21  21  1  0  0
SMALL
FORMAL_CHARGES
@<TRIPOS>ATOM
    1 C1         4.9963    -1.2823     0.0266 C.2        1 ****  0.0000
    2 O1         6.0882    -0.7050    -0.0239 O.co2      1 ****  -0.50
    3 O2         4.9478    -2.6350     0.1396 O.co2      1 ****  -0.50
    4 C2         3.7246    -0.4888    -0.0540 C.3        1 ****  0
    5 O3         3.7200     0.2506    -1.2806 O.3        1 ****  0
    6 C3         2.5147    -1.4518    -0.0017 C.3        1 ****  0
    7 C4         1.2084    -0.6974    -0.0001 C.ar       1 ****  0
    8 C5         0.0043    -1.3930    -0.0003 C.ar       1 ****  0
    9 C6        -1.1987    -0.6980    -0.0003 C.ar       1 ****  0
   10 C7        -1.1983     0.6923    -0.0001 C.ar       1 ****  0
   11 C8         0.0048     1.3871     0.0001 C.ar       1 ****  0
   12 C9         1.2089     0.6915     0.0001 C.ar       1 ****  0
   13 H1         3.6564     0.2101     0.7926 H          1 ****  0
   14 H2         3.7680    -0.3722    -2.0487 H          1 ****  0
   15 H3         2.5450    -2.1189    -0.8759 H          1 ****  0
   16 H4         2.5781    -2.0650     0.9093 H          1 ****  0
   17 H5         0.0042    -2.4930    -0.0005 H          1 ****  0
   18 H6        -2.1515    -1.2478    -0.0004 H          1 ****  0
   19 H7        -2.1508     1.2424    -0.0001 H          1 ****  0
   20 H8         0.0048     2.4871     0.0003 H          1 ****  0
   21 H9         2.1617     1.2413     0.0003 H          1 ****  0
@<TRIPOS>BOND
    1     1     2 ar
    2     1     3 ar
    3     1     4 1
    4     4     5 1
    5     4     6 1
    6     4    13 1
    7     5    14 1
    8     6     7 1
    9     6    15 1
   10     6    16 1
   11     7     8 ar
   12     7    12 ar
   13     8     9 ar
   14     8    17 1
   15     9    10 ar
   16     9    18 1
   17    10    11 ar
   18    10    19 1
   19    11    12 ar
   20    11    20 1
   21    12    21 1
@<TRIPOS>SUBSTRUCTURE
1   ****   1
@<TRIPOS>MOLECULE
2dbl
67  70  1  0  0
SMALL
FORMAL_CHARGES
@<TRIPOS>ATOM
    1 C1         0.3984    -0.8969     1.2890 C.3        1 ****  0
    2 C2         0.7398     0.5707     1.5840 C.3        1 ****  0
    3 C3         0.1052     1.8164     0.8521 C.3        1 ****  0
    4 O1        -0.3014     2.7738     1.9576 O.3        1 ****  0
    5 C4        -1.2378     1.3033     0.2336 C.3        1 ****  0
    6 C5        -0.7577     0.2034    -0.8553 C.3        1 ****  0
    7 C6        -1.9657    -0.1101    -1.6044 C.3        1 ****  0
    8 C7        -0.8070     0.6407    -2.4346 C.3        1 ****  0
    9 C8         0.4216    -0.2482    -2.7020 C.3        1 ****  0
   10 C9         1.0894    -0.3890    -0.5444 C.3        1 ****  0
   11 C10       -0.2688    -1.1390    -0.1040 C.3        1 ****  0
   12 C11        2.1149    -1.4807    -1.0131 C.3        1 ****  0
   13 C12        3.2012     3.1869    -3.4856 C.3        1 ****  0
   14 C13        3.1442     1.6899    -3.0727 C.3        1 ****  0
   15 C14        1.6774     0.6237    -3.0273 C.3        1 ****  0
   16 C15        1.3970    -0.2435    -4.2813 C.3        1 ****  0
   17 C16        2.8182    -0.4303    -4.9500 C.3        1 ****  0
   18 C17        2.8331     0.8051    -4.0500 C.3        1 ****  0
   19 C18        3.7241     1.0466    -1.5419 C.3        1 ****  0
   20 C19       -0.6832    -2.6200    -0.1416 C.3        1 ****  0
   21 C20        4.0348     1.7878    -4.4449 C.2        1 ****  0
   22 O2         5.1367     2.2997    -4.2124 O.2        1 ****  0
   23 C21        3.0866     2.5287    -5.3689 C.3        1 ****  0
   24 C22        0.5805     3.4571     1.0633 C.2        1 ****  0
   25 O3         1.0721     2.9211     0.0787 O.2        1 ****  0
   26 C23        0.9220     4.8913     1.3510 C.3        1 ****  0
   27 C24        1.8895     5.3979     0.2624 C.3        1 ****  0
   28 C25        2.2498     6.8268     0.5446 C.2        1 ****  0.0000
   29 O4         3.0127     7.4343    -0.2183 O.co2      1 ****  -0.50
   30 O5         1.7419     7.4530     1.6362 O.co2      1 ****  -0.50
   31 H1         1.3130    -1.4939     1.3532 H          1 ****  0
   32 H2        -0.2665    -1.2705     2.0696 H          1 ****  0
   33 H3         1.3816     0.9488     0.8219 H          1 ****  0
   34 H4         1.2201     0.6419     2.5358 H          1 ****  0
   35 H5         0.7804     2.2469     0.0987 H          1 ****  0
   36 H6        -2.1662     1.8567     0.2549 H          1 ****  0
   37 H7        -0.5942     1.7547    -0.5043 H          1 ****  0
   38 H8         0.0148     0.5876    -1.5357 H          1 ****  0
   39 H9        -2.8696     0.4431    -1.6767 H          1 ****  0
   40 H10       -2.0977    -1.0949    -1.9879 H          1 ****  0
   41 H11       -1.0142     1.7149    -2.4434 H          1 ****  0
   42 H12       -0.8527     0.3172    -3.4818 H          1 ****  0
   43 H13        0.1622    -0.8999    -3.5217 H          1 ****  0
   44 H14        1.4876     0.2108     0.2846 H          1 ****  0
   45 H15        2.0790    -2.5114    -0.7415 H          1 ****  0
   46 H16        2.4976    -0.9025    -0.1991 H          1 ****  0
   47 H17        4.0208    -1.6463    -2.0090 H          1 ****  0
   48 H18        2.6457    -1.8834    -3.0629 H          1 ****  0
   49 H19        1.6743     1.6712    -3.3161 H          1 ****  0
   50 H20        0.7620     0.2710    -4.9367 H          1 ****  0
   51 H21        1.0152    -1.1781    -3.9913 H          1 ****  0
   52 H22        2.8237     0.0113    -5.9054 H          1 ****  0
   53 H23        3.0640    -1.4560    -4.9850 H          1 ****  0
   54 H24        1.8482     1.2905    -4.0827 H          1 ****  0
   55 H25        4.7164     0.6858    -1.3539 H          1 ****  0
   56 H26        3.1390     0.9403    -0.6494 H          1 ****  0
   57 H27        3.7573     2.0664    -1.8358 H          1 ****  0
   58 H28       -1.3920    -2.8381     0.6210 H          1 ****  0
   59 H29        0.1642    -3.2565    -0.0516 H          1 ****  0
   60 H30       -1.1565    -2.8209    -1.1117 H          1 ****  0
   61 H31        2.1133     2.3950    -4.8639 H          1 ****  0
   62 H32        3.0376     1.8566    -6.2441 H          1 ****  0
   63 H33        3.3245     3.4428    -5.5661 H          1 ****  0
   64 H34        0.0302     5.4809     1.3382 H          1 ****  0
   65 H35        1.3917     4.9627     2.3056 H          1 ****  0
   66 H36        2.7777     4.7985     0.2665 H          1 ****  0
   67 H37        1.4175     5.3323    -0.6941 H          1 ****  0
@<TRIPOS>BOND
    1     1     2 1
    2     1    11 1
    3     1    31 1
    4     1    32 1
    5     2     3 1
    6     2    33 1
    7     2    34 1
    8     3     4 1
    9     3     5 1
   10     3    35 1
   11     4    24 1
   12     5    36 1
   13     5    37 1
   14     6     5 1
   15     6     7 1
   16     6    11 1
   17     6    38 1
   18     7     8 1
   19     7    39 1
   20     7    40 1
   21     8    41 1
   22     8    42 1
   23     9     8 1
   24     9    10 1
   25     9    15 1
   26     9    43 1
   27    10    11 1
   28    10    12 1
   29    10    44 1
   30    11    20 1
   31    12    13 1
   32    12    45 1
   33    12    46 1
   34    13    14 1
   35    13    47 1
   36    13    48 1
   37    14    15 1
   38    14    18 1
   39    14    19 1
   40    15    16 1
   41    15    49 1
   42    16    17 1
   43    16    50 1
   44    16    51 1
   45    17    18 1
   46    17    52 1
   47    17    53 1
   48    18    21 1
   49    18    54 1
   50    19    55 1
   51    19    56 1
   52    19    57 1
   53    20    58 1
   54    20    59 1
   55    20    60 1
   56    21    22 2
   57    21    23 1
   58    23    61 1
   59    23    62 1
   60    23    63 1
   61    24    25 2
   62    24    26 1
   63    26    27 1
   64    26    64 1
   65    26    65 1
   66    27    28 1
   67    27    66 1
   68    27    67 1
   69    28    29 ar
   70    28    30 ar
@<TRIPOS>SUBSTRUCTURE
1   ****   1
@<TRIPOS>MOLECULE
2fox
52  54  1  0  0
SMALL
FORMAL_CHARGES
@<TRIPOS>ATOM
    1 N1         1.1537    -0.6941     0.1948 N.am       1 ****  0
    2 C1         1.1836     0.6984     0.1138 C.2        1 ****  0
    3 O1         2.2660     1.2965     0.1315 O.2        1 ****  0
    4 N2        -0.0029     1.4104    -0.0046 N.am       1 ****  0
    5 C2        -1.2058     0.7206    -0.0647 C.2        1 ****  0
    6 O2        -2.4014     1.4140    -0.1992 O.3        1 ****  0
    7 C3        -1.2108    -0.6077     0.0015 C.2        1 ****  0
    8 N3        -2.4713    -1.3033    -0.0731 N.pl3      1 ****  0
    9 C4        -2.3877    -2.7514    -0.0012 C.ar       1 ****  0
   10 C5        -3.5693    -3.4781    -0.0841 C.ar       1 ****  0
   11 C6        -3.5518    -4.8659    -0.0288 C.ar       1 ****  0
   12 C7        -4.8335    -5.6349    -0.1289 C.3        1 ****  0
   13 C8        -2.3450    -5.5375     0.1152 C.ar       1 ****  0
   14 C9        -2.3172    -7.0341     0.1716 C.3        1 ****  0
   15 C10       -1.1609    -4.8171     0.2012 C.ar       1 ****  0
   16 C11       -1.1781    -3.4293     0.1410 C.ar       1 ****  0
   17 N4         0.0463    -2.7247     0.2183 N.pl3      1 ****  0
   18 C12        0.0495    -1.3239     0.1434 C.2        1 ****  0
   19 C13        1.3196    -3.4605     0.4199 C.3        1 ****  0
   20 C14        2.6466    -3.4542    -0.4660 C.3        1 ****  0
   21 O3         2.1973    -3.0838    -1.8569 O.3        1 ****  0
   22 C15        2.3436    -5.5883    -0.9780 C.3        1 ****  0
   23 O4         2.7829    -5.9289     0.3866 O.3        1 ****  0
   24 C16        4.4432    -4.9581    -1.4407 C.3        1 ****  0
   25 O5         4.0140    -4.6166    -2.8205 O.3        1 ****  0
   26 C17        4.8946    -6.4432    -1.5122 C.3        1 ****  0
   27 O6         5.3766    -7.0627    -2.7058 O.3        1 ****  0
   28 P1         6.6602    -7.8679    -2.3920 P.3        1 ****  0
   29 O7         7.7211    -6.9306    -1.8474 O.2        1 ****  -1
   30 O8         6.3488    -8.9342    -1.3596 O.2        1 ****  -1
   31 O9         7.1216    -8.4645    -3.5470 O.2        1 ****  0
   32 H1         0.0096     2.4395    -0.0474 H          1 ****  0
   33 H2        -2.2896     1.9570    -1.0194 H          1 ****  0
   34 H3        -3.3690    -0.8077    -0.1707 H          1 ****  0
   35 H4        -4.5275    -2.9492    -0.1944 H          1 ****  0
   36 H5        -5.2871    -5.3121    -1.0776 H          1 ****  0
   37 H6        -5.4651    -5.2442     0.6826 H          1 ****  0
   38 H7        -4.7044    -6.7259    -0.0738 H          1 ****  0
   39 H8        -2.8101    -7.3622    -0.7554 H          1 ****  0
   40 H9        -2.9850    -7.2991     1.0046 H          1 ****  0
   41 H10       -1.3093    -7.4592     0.2871 H          1 ****  0
   42 H11       -0.2046    -5.3480     0.3175 H          1 ****  0
   43 H12        1.1598    -4.2580     1.1604 H          1 ****  0
   44 H13        2.0735    -2.7677     0.8219 H          1 ****  0
   45 H14        3.4318    -2.8162    -0.0342 H          1 ****  0
   46 H15        2.8867    -2.4907    -1.4658 H          1 ****  0
   47 H16        1.5665    -6.2527    -1.3837 H          1 ****  0
   48 H17        2.0834    -6.5229     0.0150 H          1 ****  0
   49 H18        5.2329    -4.3125    -1.0290 H          1 ****  0
   50 H19        4.7157    -4.0299    -2.4418 H          1 ****  0
   51 H20        4.6263    -7.2178    -0.7787 H          1 ****  0
   52 H21        5.6763    -5.7917    -1.0946 H          1 ****  0
@<TRIPOS>BOND
    1     1     2 am
    2     1    18 2
    3     2     3 2
    4     2     4 am
    5     4     5 1
    6     4    32 1
    7     5     6 1
    8     5     7 2
    9     6    33 1
   10     7     8 1
   11     7    18 1
   12     8     9 1
   13     8    34 1
   14     9    10 ar
   15     9    16 ar
   16    10    11 ar
   17    10    35 1
   18    11    12 1
   19    11    13 ar
   20    12    36 1
   21    12    37 1
   22    12    38 1
   23    13    14 1
   24    13    15 ar
   25    14    39 1
   26    14    40 1
   27    14    41 1
   28    15    16 ar
   29    15    42 1
   30    16    17 1
   31    17    18 1
   32    17    19 1
   33    19    20 1
   34    19    43 1
   35    19    44 1
   36    20    21 1
   37    20    22 1
   38    20    45 1
   39    21    46 1
   40    22    23 1
   41    22    24 1
   42    22    47 1
   43    23    48 1
   44    24    25 1
   45    24    26 1
   46    24    49 1
   47    25    50 1
   48    26    27 1
   49    26    51 1
   50    26    52 1
   51    27    28 1
   52    28    29 1
   53    28    30 1
   54    28    31 2
@<TRIPOS>SUBSTRUCTURE
1   ****   1
@<TRIPOS>MOLECULE
2gbp
24  24  1  0  0
SMALL
FORMAL_CHARGES
@<TRIPOS>ATOM
    1 C1         1.2042    -0.6604    -0.8982 C.3        1 ****  0
    2 C2         0.0185    -1.5303     0.7518 C.3        1 ****  0
    3 C3        -1.2586    -0.7302    -0.8602 C.3        1 ****  0
    4 C4        -1.2441     0.6764     0.8572 C.3        1 ****  0
    5 C5         0.0672     1.3836     0.2743 C.3        1 ****  0
    6 C6         0.0607     1.6206     1.8442 C.3        1 ****  0
    7 O1         2.4003    -1.3805    -0.3922 O.3        1 ****  0
    8 O2         0.0178    -2.8327     0.0564 O.3        1 ****  0
    9 O3        -2.4249    -1.4265    -0.2705 O.3        1 ****  0
   10 O4        -2.3985     1.3644     0.1985 O.3        1 ****  0
   11 O5         1.2344     0.6449    -0.2061 O.3        1 ****  0
   12 O6        -0.0330     0.4531     2.6698 O.3        1 ****  0
   13 H1         1.1596    -0.5654    -1.9697 H          1 ****  0
   14 H2         0.0479    -1.5951     1.8476 H          1 ****  0
   15 H3        -1.2624    -0.6773    -1.9509 H          1 ****  0
   16 H4        -1.2658     0.6824     1.9554 H          1 ****  0
   17 H5         0.0957     2.3849    -0.1777 H          1 ****  0
   18 H6        -0.7712     2.2940     2.0998 H          1 ****  0
   19 H7         0.9732     2.1733     2.1252 H          1 ****  0
   20 H8         3.2154    -0.9310    -0.0584 H          1 ****  0
   21 H9         0.0435    -2.8818     1.0440 H          1 ****  0
   22 H10       -2.4281    -2.3721     0.0188 H          1 ****  0
   23 H11       -2.4636     1.3384     1.1826 H          1 ****  0
   24 H12        0.8436     0.0286     2.7583 H          1 ****  0
@<TRIPOS>BOND
    1     1     2 1
    2     1     7 1
    3     1    11 1
    4     1    13 1
    5     2     3 1
    6     2     8 1
    7     2    14 1
    8     3     4 1
    9     3     9 1
   10     3    15 1
   11     4     5 1
   12     4    10 1
   13     4    16 1
   14     5     6 1
   15     5    11 1
   16     5    17 1
   17     6    12 1
   18     6    18 1
   19     6    19 1
   20     7    20 1
   21     8    21 1
   22     9    22 1
   23    10    23 1
   24    12    24 1
@<TRIPOS>SUBSTRUCTURE
1   ****   1
@<TRIPOS>MOLECULE
2h4n
18  18  1  0  0
SMALL
FORMAL_CHARGES
@<TRIPOS>ATOM
    1 C1         0.7682    -0.8596    -0.0002 C.ar       1 ****  0
    2 C2        -1.1297     0.5149    -0.0001 C.ar       1 ****  0
    3 C3        -2.6689     2.5362     0.0000 C.2        1 ****  0
    4 C4        -1.5686     3.5659    -0.0000 C.3        1 ****  0
    5 N1         1.7235    -3.1632     1.3336 N.am       1 ****  -1
    6 N2         0.0182     1.1891     0.0002 N.ar       1 ****  0
    7 N3         1.0508     0.4413     0.0002 N.ar       1 ****  0
    8 N4        -2.4143     1.1288    -0.0000 N.am       1 ****  0
    9 O1         3.3694    -1.5202     0.0921 O.2        1 ****  0
   10 O2         1.8693    -2.9385    -1.2814 O.2        1 ****  0
   11 O3        -3.8421     2.9263     0.0001 O.2        1 ****  0
   12 S1         1.9855    -2.1348    -0.0002 S.O2       1 ****  0
   13 S2        -0.8827    -1.1416    -0.0004 S.3        1 ****  0
   14 H1        -0.9646     3.3021    -0.8807 H          1 ****  0
   15 H2        -0.9645     3.3020     0.8806 H          1 ****  0
   16 H3        -1.9045     4.6133     0.0001 H          1 ****  0
   17 H4         2.1264    -4.1111     1.3401 H          1 ****  0
   18 H5        -3.2330     0.5039    -0.0001 H          1 ****  0
@<TRIPOS>BOND
    1     1     7 ar
    2     1    12 1
    3     1    13 ar
    4     2     6 ar
    5     2     8 1
    6     2    13 ar
    7     3     4 1
    8     3     8 am
    9     3    11 2
   10     4    14 1
   11     4    15 1
   12     4    16 1
   13     5    12 1
   14     5    17 1
   15     6     7 ar
   16     8    18 1
   17     9    12 2
   18    10    12 2
@<TRIPOS>SUBSTRUCTURE
1   ****   1
@<TRIPOS>MOLECULE
2ifb
49  48  1  0  0
SMALL
FORMAL_CHARGES
@<TRIPOS>ATOM
    1 C1         1.5833     0.7252     0.0000 C.2        1 ****  0.0000
    2 O1         1.6794     2.0804     0.0001 O.co2      1 ****  -0.50
    3 O2         0.4733     0.1841    -0.0001 O.co2      1 ****  -0.50
    4 C2         2.8283    -0.1142     0.0000 C.3        1 ****  0
    5 C3         4.0689     0.7982    -0.0000 C.3        1 ****  0
    6 C4         5.3395    -0.0715     0.0000 C.3        1 ****  0
    7 C5         6.5883     0.8299    -0.0001 C.3        1 ****  0
    8 C6         7.8515    -0.0519    -0.0000 C.3        1 ****  0
    9 C7         9.1080     0.8390    -0.0001 C.3        1 ****  0
   10 C8        10.3657    -0.0512    -0.0000 C.3        1 ****  0
   11 C9        11.6259     0.8342    -0.0001 C.3        1 ****  0
   12 C10       12.8816    -0.0583    -0.0000 C.3        1 ****  0
   13 C11       14.1414     0.8273    -0.0000 C.3        1 ****  0
   14 C12       15.3979    -0.0630     0.0001 C.3        1 ****  0
   15 C13       16.6551     0.8259     0.0001 C.3        1 ****  0
   16 C14       17.9134    -0.0611     0.0002 C.3        1 ****  0
   17 C15       19.1688     0.8306     0.0002 C.3        1 ****  0
   18 C16       20.4286    -0.0548     0.0003 C.3        1 ****  0
   19 H1         2.8417    -0.7495     0.8980 H          1 ****  0
   20 H2         2.8424    -0.7502    -0.8973 H          1 ****  0
   21 H3         4.0585     1.4321    -0.8990 H          1 ****  0
   22 H4         4.0593     1.4329     0.8984 H          1 ****  0
   23 H5         5.3478    -0.7073     0.8977 H          1 ****  0
   24 H6         5.3485    -0.7080    -0.8971 H          1 ****  0
   25 H7         6.5837     1.4638    -0.8990 H          1 ****  0
   26 H8         6.5844     1.4646     0.8983 H          1 ****  0
   27 H9         7.8543    -0.6875     0.8977 H          1 ****  0
   28 H10        7.8550    -0.6883    -0.8972 H          1 ****  0
   29 H11        9.1081     1.4733    -0.8988 H          1 ****  0
   30 H12        9.1089     1.4741     0.8980 H          1 ****  0
   31 H13       10.3650    -0.6864     0.8980 H          1 ****  0
   32 H14       10.3657    -0.6871    -0.8975 H          1 ****  0
   33 H15       11.6280     1.4690    -0.8985 H          1 ****  0
   34 H16       11.6288     1.4698     0.8977 H          1 ****  0
   35 H17       12.8803    -0.6930     0.8984 H          1 ****  0
   36 H18       12.8811    -0.6938    -0.8978 H          1 ****  0
   37 H19       14.1431     1.4623    -0.8982 H          1 ****  0
   38 H20       14.1437     1.4632     0.8976 H          1 ****  0
   39 H21       15.3980    -0.6975     0.8986 H          1 ****  0
   40 H22       15.3988    -0.6983    -0.8980 H          1 ****  0
   41 H23       16.6551     1.4609    -0.8982 H          1 ****  0
   42 H24       16.6558     1.4617     0.8977 H          1 ****  0
   43 H25       17.9149    -0.6956     0.8987 H          1 ****  0
   44 H26       17.9157    -0.6964    -0.8978 H          1 ****  0
   45 H27       19.1677     1.4654    -0.8982 H          1 ****  0
   46 H28       19.1684     1.4662     0.8979 H          1 ****  0
   47 H29       20.4311    -0.6903    -0.8975 H          1 ****  0
   48 H30       20.4310    -0.6901     0.8983 H          1 ****  0
   49 H31       21.3256     0.5820     0.0003 H          1 ****  0
@<TRIPOS>BOND
    1     1     2 ar
    2     1     3 ar
    3     1     4 1
    4     4     5 1
    5     4    19 1
    6     4    20 1
    7     5     6 1
    8     5    21 1
    9     5    22 1
   10     6     7 1
   11     6    23 1
   12     6    24 1
   13     7     8 1
   14     7    25 1
   15     7    26 1
   16     8     9 1
   17     8    27 1
   18     8    28 1
   19     9    10 1
   20     9    29 1
   21     9    30 1
   22    10    11 1
   23    10    31 1
   24    10    32 1
   25    11    12 1
   26    11    33 1
   27    11    34 1
   28    12    13 1
   29    12    35 1
   30    12    36 1
   31    13    14 1
   32    13    37 1
   33    13    38 1
   34    14    15 1
   35    14    39 1
   36    14    40 1
   37    15    16 1
   38    15    41 1
   39    15    42 1
   40    16    17 1
   41    16    43 1
   42    16    44 1
   43    17    18 1
   44    17    45 1
   45    17    46 1
   46    18    47 1
   47    18    48 1
   48    18    49 1
@<TRIPOS>SUBSTRUCTURE
1   ****   1
@<TRIPOS>MOLECULE
2lgs
18  17  1  0  0
SMALL
FORMAL_CHARGES
@<TRIPOS>ATOM
    1 N1         2.6454    -0.9599    -1.1713 N.4        1 ****  1
    2 C1         2.6428    -0.0794     0.0044 C.3        1 ****  0
    3 C2         1.3994     0.7606     0.0018 C.2        1 ****  0.0000
    4 O1         0.2885     0.2146    -0.0466 O.co2      1 ****  -0.50
    5 C3         3.8965     0.8160    -0.0159 C.3        1 ****  0
    6 C4         5.1451    -0.0874    -0.0024 C.3        1 ****  0
    7 C5         6.3917     0.7490    -0.0056 C.2        1 ****  0.0000
    8 O2         7.5004     0.2009    -0.0002 O.co2      1 ****  -0.50
    9 O3         6.3046     2.1039    -0.0104 O.co2      1 ****  -0.50
   10 O4         1.4872     2.1136     0.0537 O.co2      1 ****  -0.50
   11 H1         2.6194    -0.3886    -2.0280 H          1 ****  0
   12 H2         1.8178    -1.5724    -1.1432 H          1 ****  0
   13 H3         3.4990    -1.5362    -1.1689 H          1 ****  0
   14 H4         2.6576    -0.6880     0.9206 H          1 ****  0
   15 H5         3.8963     1.4305    -0.9282 H          1 ****  0
   16 H6         3.9021     1.4649     0.8723 H          1 ****  0
   17 H7         5.1309    -0.7162     0.9001 H          1 ****  0
   18 H8         5.1385    -0.7341    -0.8922 H          1 ****  0
@<TRIPOS>BOND
    1     1    11 1
    2     1    12 1
    3     1    13 1
    4     2     1 1
    5     2     3 1
    6     2     5 1
    7     2    14 1
    8     3     4 ar
    9     3    10 ar
   10     5     6 1
   11     5    15 1
   12     5    16 1
   13     6     7 1
   14     6    17 1
   15     6    18 1
   16     7     8 ar
   17     7     9 ar
@<TRIPOS>SUBSTRUCTURE
1   ****   1
@<TRIPOS>MOLECULE
2mcp
25  24  1  0  0
SMALL
FORMAL_CHARGES
@<TRIPOS>ATOM
    1 O1         1.4039     1.7038    -1.1922 O.3        1 ****  0
    2 P1         1.4389     0.7563     0.0331 P.3        1 ****  0
    3 O2         0.3332    -0.0716     0.0076 O.2        1 ****  0
    4 O3         1.4268     1.5767     1.3082 O.2        1 ****  -1
    5 O4         2.7256    -0.1024    -0.0144 O.3        1 ****  0
    6 C1         3.8684     0.7539    -0.0133 C.3        1 ****  0
    7 C2         5.1475    -0.1056     0.0081 C.3        1 ****  0
    8 N1         6.3393     0.7597    -0.0259 N.4        1 ****  1
    9 C3         6.3350     1.5578    -1.2616 C.3        1 ****  0
   10 C4         6.3344     1.6580     1.1391 C.3        1 ****  0
   11 C5         7.5470    -0.0769     0.0091 C.3        1 ****  0
   12 H1         1.4120     1.1682    -2.0248 H          1 ****  0
   13 H2         3.8451     1.3982     0.8779 H          1 ****  0
   14 H3         3.8610     1.3777    -0.9192 H          1 ****  0
   15 H4         5.1560    -0.7716    -0.8673 H          1 ****  0
   16 H5         5.1643    -0.7131     0.9249 H          1 ****  0
   17 H6         5.4291     2.1810    -1.2923 H          1 ****  0
   18 H7         6.3458     0.8855    -2.1322 H          1 ****  0
   19 H8         7.2251     2.2036    -1.2863 H          1 ****  0
   20 H9         6.3424     1.0596     2.0621 H          1 ****  0
   21 H10        5.4284     2.2814     1.1162 H          1 ****  0
   22 H11        7.2249     2.3031     1.1120 H          1 ****  0
   23 H12        7.5571    -0.7477    -0.8627 H          1 ****  0
   24 H13        7.5554    -0.6750     0.9323 H          1 ****  0
   25 H14        8.4386     0.5668    -0.0161 H          1 ****  0
@<TRIPOS>BOND
    1     1    12 1
    2     2     1 1
    3     2     3 2
    4     2     4 1
    5     2     5 1
    6     5     6 1
    7     6     7 1
    8     6    13 1
    9     6    14 1
   10     7     8 1
   11     7    15 1
   12     7    16 1
   13     8     9 1
   14     8    10 1
   15     8    11 1
   16     9    17 1
   17     9    18 1
   18     9    19 1
   19    10    20 1
   20    10    21 1
   21    10    22 1
   22    11    23 1
   23    11    24 1
   24    11    25 1
@<TRIPOS>SUBSTRUCTURE
1   ****   1
@<TRIPOS>MOLECULE
2pcp
44  46  1  0  0
SMALL
FORMAL_CHARGES
@<TRIPOS>ATOM
    1 C1         1.7745    -1.0254     4.6029 C.3        1 ****  0
    2 C2         2.4994    -1.4439    -0.3440 C.ar       1 ****  0
    3 C3         3.5009    -2.0218     0.4276 C.ar       1 ****  0
    4 C4         4.5816    -2.6458    -0.1858 C.ar       1 ****  0
    5 C5         4.6613    -2.6923    -1.5720 C.ar       1 ****  0
    6 C6         3.6609    -2.1151    -2.3461 C.ar       1 ****  0
    7 C7         2.5812    -1.4916    -1.7333 C.ar       1 ****  0
    8 C8         1.2538    -0.7246     0.2632 C.3        1 ****  0
    9 C9         1.2556     0.7274    -0.2508 C.3        1 ****  0
   10 C10       -0.0027     1.4541     0.2595 C.3        1 ****  0
   11 C11       -1.2598     0.7276    -0.2555 C.3        1 ****  0
   12 C12       -1.2612    -0.7246     0.2587 C.3        1 ****  0
   13 C13       -0.0030    -1.4513    -0.2516 C.3        1 ****  0
   14 N1         1.1732    -0.6786     1.7768 N.4        1 ****  1
   15 C14        2.2492     0.0993     2.4172 C.3        1 ****  0
   16 C15        1.9149     0.3331     3.9023 C.3        1 ****  0
   17 C16        0.6695    -1.8281     3.9025 C.3        1 ****  0
   18 C17        1.0371    -1.9999     2.4164 C.3        1 ****  0
   19 H1         1.5045    -0.8710     5.6580 H          1 ****  0
   20 H2         2.7257    -1.5740     4.5375 H          1 ****  0
   21 H3         3.4384    -1.9853     1.5252 H          1 ****  0
   22 H4         5.3732    -3.1025     0.4264 H          1 ****  0
   23 H5         5.5162    -3.1859    -2.0573 H          1 ****  0
   24 H6         3.7244    -2.1521    -3.4436 H          1 ****  0
   25 H7         1.7900    -1.0351    -2.3462 H          1 ****  0
   26 H8         2.1528     1.2460     0.1182 H          1 ****  0
   27 H9         1.2578     0.7283    -1.3508 H          1 ****  0
   28 H10       -0.0030     2.4909    -0.1078 H          1 ****  0
   29 H11       -0.0051     1.4547     1.3595 H          1 ****  0
   30 H12       -2.1585     1.2462     0.1097 H          1 ****  0
   31 H13       -1.2589     0.7262    -1.3555 H          1 ****  0
   32 H14       -2.1583    -1.2441    -0.1092 H          1 ****  0
   33 H15       -1.2630    -0.7242     1.3587 H          1 ****  0
   34 H16       -0.0049    -2.4881     0.1160 H          1 ****  0
   35 H17       -0.0015    -1.4522    -1.3516 H          1 ****  0
   36 H18        0.2928    -0.1703     1.9424 H          1 ****  0
   37 H19        2.3522     1.0696     1.9093 H          1 ****  0
   38 H20        3.1967    -0.4540     2.3389 H          1 ****  0
   39 H21        2.7240     0.9097     4.3743 H          1 ****  0
   40 H22        0.9686     0.8881     3.9828 H          1 ****  0
   41 H23        0.5779    -2.8173     4.3747 H          1 ****  0
   42 H24       -0.2860    -1.2891     3.9842 H          1 ****  0
   43 H25        0.2468    -2.5722     1.9086 H          1 ****  0
   44 H26        1.9889    -2.5455     2.3367 H          1 ****  0
@<TRIPOS>BOND
    1     1    16 1
    2     1    17 1
    3     1    19 1
    4     1    20 1
    5     2     3 ar
    6     2     7 ar
    7     2     8 1
    8     3     4 ar
    9     3    21 1
   10     4     5 ar
   11     4    22 1
   12     5     6 ar
   13     5    23 1
   14     6     7 ar
   15     6    24 1
   16     7    25 1
   17     8     9 1
   18     8    13 1
   19     8    14 1
   20     9    10 1
   21     9    26 1
   22     9    27 1
   23    10    11 1
   24    10    28 1
   25    10    29 1
   26    11    12 1
   27    11    30 1
   28    11    31 1
   29    12    13 1
   30    12    32 1
   31    12    33 1
   32    13    34 1
   33    13    35 1
   34    14    15 1
   35    14    18 1
   36    14    36 1
   37    15    16 1
   38    15    37 1
   39    15    38 1
   40    16    39 1
   41    16    40 1
   42    17    18 1
   43    17    41 1
   44    17    42 1
   45    18    43 1
   46    18    44 1
@<TRIPOS>SUBSTRUCTURE
1   ****   1
@<TRIPOS>MOLECULE
2phh
15  15  1  0  0
SMALL
FORMAL_CHARGES
@<TRIPOS>ATOM
    1 C1         2.4599    -1.4212    -0.0001 C.2        1 ****  0.0000
    2 O1         3.5311    -0.8038     0.0001 O.co2      1 ****  -0.50
    3 O2         2.4597    -2.7798    -0.0002 O.co2      1 ****  -0.50
    4 C2         1.1920    -0.6884    -0.0001 C.ar       1 ****  0
    5 C3        -0.0114    -1.3835    -0.0003 C.ar       1 ****  0
    6 C4        -1.2147    -0.6886    -0.0003 C.ar       1 ****  0
    7 C5        -1.2141     0.7012    -0.0001 C.ar       1 ****  0
    8 O3        -2.4168     1.3951    -0.0001 O.3        1 ****  0
    9 C6        -0.0106     1.3965     0.0001 C.ar       1 ****  0
   10 C7         1.1928     0.7015     0.0001 C.ar       1 ****  0
   11 H1        -0.0113    -2.4835    -0.0004 H          1 ****  0
   12 H2        -2.1675    -1.2383    -0.0004 H          1 ****  0
   13 H3        -2.9031     1.0638     0.7961 H          1 ****  0
   14 H4        -0.0107     2.4965     0.0003 H          1 ****  0
   15 H5         2.1457     1.2512     0.0003 H          1 ****  0
@<TRIPOS>BOND
    1     1     2 ar
    2     1     3 ar
    3     1     4 1
    4     4     5 ar
    5     4    10 ar
    6     5     6 ar
    7     5    11 1
    8     6     7 ar
    9     6    12 1
   10     7     8 1
   11     7     9 ar
   12     8    13 1
   13     9    10 ar
   14     9    14 1
   15    10    15 1
@<TRIPOS>SUBSTRUCTURE
1   ****   1
@<TRIPOS>MOLECULE
2pk4
22  21  1  0  0
SMALL
FORMAL_CHARGES
@<TRIPOS>ATOM
    1 C1         1.3877     0.7305    -0.0001 C.2        1 ****  0.0000
    2 O1         0.2811     0.1817    -0.0001 O.co2      1 ****  -0.50
    3 O2         1.4746     2.0861    -0.0004 O.co2      1 ****  -0.50
    4 C2         2.6369    -0.1016     0.0001 C.3        1 ****  0
    5 C3         3.8744     0.8143    -0.0001 C.3        1 ****  0
    6 C4         5.1436    -0.0566     0.0002 C.3        1 ****  0
    7 C5         6.3940     0.8406    -0.0001 C.3        1 ****  0
    8 C6         7.6535    -0.0463     0.0002 C.3        1 ****  0
    9 N1         8.8541     0.8012    -0.0001 N.4        1 ****  1
   10 H1         2.6530    -0.7371     0.8979 H          1 ****  0
   11 H2         2.6538    -0.7384    -0.8967 H          1 ****  0
   12 H3         3.8635     1.4471    -0.8998 H          1 ****  0
   13 H4         3.8642     1.4483     0.8987 H          1 ****  0
   14 H5         5.1507    -0.6924     0.8977 H          1 ****  0
   15 H6         5.1515    -0.6937    -0.8965 H          1 ****  0
   16 H7         6.3917     1.4740    -0.8994 H          1 ****  0
   17 H8         6.3924     1.4753     0.8983 H          1 ****  0
   18 H9         7.6551    -0.6825    -0.8971 H          1 ****  0
   19 H10        7.6544    -0.6813     0.8984 H          1 ****  0
   20 H11        8.8539     1.3967     0.8404 H          1 ****  0
   21 H12        8.8539     1.3961    -0.8409 H          1 ****  0
   22 H13        9.6958     0.2075     0.0001 H          1 ****  0
@<TRIPOS>BOND
    1     1     2 ar
    2     1     3 ar
    3     1     4 1
    4     4     5 1
    5     4    10 1
    6     4    11 1
    7     5     6 1
    8     5    12 1
    9     5    13 1
   10     6     7 1
   11     6    14 1
   12     6    15 1
   13     7     8 1
   14     7    16 1
   15     7    17 1
   16     8     9 1
   17     8    18 1
   18     8    19 1
   19     9    20 1
   20     9    21 1
   21     9    22 1
@<TRIPOS>SUBSTRUCTURE
1   ****   1
@<TRIPOS>MOLECULE
2qwk
44  44  1  0  0
SMALL
FORMAL_CHARGES
@<TRIPOS>ATOM
    1 C1         2.4247    -1.4257    -0.1506 C.2        1 ****  0.0000
    2 O1         3.4601    -0.8579    -0.5152 O.co2      1 ****  -0.50
    3 O2         2.4467    -2.7473     0.1620 O.co2      1 ****  -0.50
    4 C2         1.1745    -0.6812    -0.0700 C.2        1 ****  0
    5 C3         1.1618     0.7773    -0.5188 C.3        1 ****  0
    6 C4         0.0278     1.6002     0.1058 C.3        1 ****  0
    7 C5        -1.4180     0.9554     0.8501 C.3        1 ****  0
    8 N1        -2.5746     1.4516    -0.2417 N.am       1 ****  0
    9 C6        -3.3312     2.0435     0.8235 C.2        1 ****  0
   10 O3        -4.4357     2.5174     0.5350 O.2        1 ****  0
   11 C7        -2.8892     2.1645     2.2261 C.3        1 ****  0
   12 C8        -1.2883    -0.6923     0.4692 C.3        1 ****  0
   13 C9         0.0743    -1.3339     0.3357 C.2        1 ****  0
   14 O4        -1.8216    -0.8462     1.8798 O.3        1 ****  0
   15 C10       -1.0704    -0.4009     3.0600 C.3        1 ****  0
   16 C11       -1.9869    -0.4768     4.2921 C.3        1 ****  0
   17 C12        0.2011    -1.2509     3.3583 C.3        1 ****  0
   18 C13       -0.1808    -2.7277     3.5998 C.3        1 ****  0
   19 C14       -1.2647     0.1777     5.4908 C.3        1 ****  0
   20 N2         0.3965     1.9022     1.4860 N.4        1 ****  1
   21 H1         2.1163     1.2364    -0.2630 H          1 ****  0
   22 H2         1.0723     0.8156    -1.6013 H          1 ****  0
   23 H3        -0.0466     2.5494    -0.4397 H          1 ****  0
   24 H4        -1.5861     1.1647     1.9147 H          1 ****  0
   25 H5        -2.9974     1.5113    -1.1384 H          1 ****  0
   26 H6        -1.9104     2.6692     2.1029 H          1 ****  0
   27 H7        -2.6217     1.1152     2.4611 H          1 ****  0
   28 H8        -3.4984     2.5825     2.8299 H          1 ****  0
   29 H9        -2.0020    -1.2733    -0.1327 H          1 ****  0
   30 H10        0.1670    -2.3717     0.5794 H          1 ****  0
   31 H11       -0.8062     0.6244     2.9356 H          1 ****  0
   32 H12       -2.1983    -1.4974     4.5183 H          1 ****  0
   33 H13       -2.8970     0.0484     4.0937 H          1 ****  0
   34 H14        0.6932    -0.8639     4.2306 H          1 ****  0
   35 H15        0.8764    -1.1894     2.5222 H          1 ****  0
   36 H16       -0.6714    -3.1086     2.7264 H          1 ****  0
   37 H17       -0.8536    -2.7825     4.4322 H          1 ****  0
   38 H18        0.6935    -3.3003     3.8027 H          1 ****  0
   39 H19       -1.0516     1.2013     5.2720 H          1 ****  0
   40 H20       -0.3547    -0.3429     5.6953 H          1 ****  0
   41 H21       -1.9021     0.1283     6.3598 H          1 ****  0
   42 H22        1.2448     2.4824     1.4759 H          1 ****  0
   43 H23        0.6174     1.0506     1.9647 H          1 ****  0
   44 H24       -0.3385     2.4078     1.9604 H          1 ****  0
@<TRIPOS>BOND
    1     1     2 ar
    2     1     3 ar
    3     1     4 1
    4     4     5 1
    5     4    13 2
    6     5     6 1
    7     5    21 1
    8     5    22 1
    9     6     7 1
   10     6    20 1
   11     6    23 1
   12     7     8 1
   13     7    12 1
   14     7    24 1
   15     8     9 am
   16     8    25 1
   17     9    10 2
   18     9    11 1
   19    11    26 1
   20    11    27 1
   21    11    28 1
   22    12    13 1
   23    12    14 1
   24    12    29 1
   25    13    30 1
   26    14    15 1
   27    15    16 1
   28    15    17 1
   29    15    31 1
   30    16    19 1
   31    16    32 1
   32    16    33 1
   33    17    18 1
   34    17    34 1
   35    17    35 1
   36    18    36 1
   37    18    37 1
   38    18    38 1
   39    19    39 1
   40    19    40 1
   41    19    41 1
   42    20    42 1
   43    20    43 1
   44    20    44 1
@<TRIPOS>SUBSTRUCTURE
1   ****   1
@<TRIPOS>MOLECULE
2r07
46  48  1  0  0
SMALL
FORMAL_CHARGES
@<TRIPOS>ATOM
    1 O1         6.8916    -7.4830     0.0001 O.2        1 ****  0
    2 N1         7.7822    -8.3427     0.0001 N.ar       1 ****  0
    3 C1         7.2302    -9.5510    -0.0001 C.ar       1 ****  0
    4 C2         7.9798   -10.8458    -0.0002 C.3        1 ****  0
    5 C3         5.8557    -9.4222    -0.0003 C.ar       1 ****  0
    6 C4         5.7385    -8.0530    -0.0002 C.ar       1 ****  0
    7 C5         4.4232    -7.3278    -0.0002 C.3        1 ****  0
    8 C6         4.6690    -5.8071    -0.0002 C.3        1 ****  0
    9 C7         3.3156    -5.0701    -0.0003 C.3        1 ****  0
   10 C8         3.5553    -3.5485    -0.0002 C.3        1 ****  0
   11 C9         2.2015    -2.8125    -0.0002 C.3        1 ****  0
   12 O2         2.4284    -1.3963    -0.0001 O.3        1 ****  0
   13 C10        1.2177    -0.6979    -0.0001 C.ar       1 ****  0
   14 C11        0.0149    -1.3939    -0.0002 C.ar       1 ****  0
   15 C12       -1.1891    -0.6999    -0.0002 C.ar       1 ****  0
   16 C13       -1.1898     0.6898    -0.0001 C.ar       1 ****  0
   17 C14        0.0130     1.3860    -0.0000 C.ar       1 ****  0
   18 C15        1.2168     0.6919    -0.0000 C.ar       1 ****  0
   19 C16       -2.4582     1.4207    -0.0000 C.ar       1 ****  0
   20 N2        -2.5428     2.7358     0.0001 N.ar       1 ****  0
   21 C17       -3.8384     3.0115     0.0001 C.ar       1 ****  0
   22 C18       -4.5034     1.7910    -0.0000 C.ar       1 ****  0
   23 O3        -3.6112     0.8557    -0.0001 O.2        1 ****  0
   24 C19        2.5137     1.4415     0.0000 C.3        1 ****  0
   25 H1         8.6339   -10.7521     0.8792 H          1 ****  0
   26 H2         8.6342   -10.7519    -0.8793 H          1 ****  0
   27 H3         7.3650   -11.7580    -0.0004 H          1 ****  0
   28 H4         5.0747   -10.1969    -0.0005 H          1 ****  0
   29 H5         3.8517    -7.6058    -0.8981 H          1 ****  0
   30 H6         3.8507    -7.6054     0.8971 H          1 ****  0
   31 H7         5.2384    -5.5274     0.8984 H          1 ****  0
   32 H8         5.2387    -5.5265    -0.8983 H          1 ****  0
   33 H9         2.7456    -5.3505    -0.8983 H          1 ****  0
   34 H10        2.7446    -5.3502     0.8972 H          1 ****  0
   35 H11        4.1247    -3.2672     0.8980 H          1 ****  0
   36 H12        4.1251    -3.2662    -0.8978 H          1 ****  0
   37 H13        1.6319    -3.0921    -0.8988 H          1 ****  0
   38 H14        1.6309    -3.0918     0.8977 H          1 ****  0
   39 H15        0.0158    -2.4939    -0.0003 H          1 ****  0
   40 H16       -2.1414    -1.2504    -0.0002 H          1 ****  0
   41 H17        0.0121     2.4860     0.0001 H          1 ****  0
   42 H18       -4.2980     4.0109     0.0001 H          1 ****  0
   43 H19       -5.5939     1.6468    -0.0001 H          1 ****  0
   44 H20        3.0548     1.0759    -0.8852 H          1 ****  0
   45 H21        3.0548     1.0758     0.8852 H          1 ****  0
   46 H22        2.3968     2.5353     0.0001 H          1 ****  0
@<TRIPOS>BOND
    1     1     2 ar
    2     1     6 ar
    3     2     3 ar
    4     3     4 1
    5     3     5 ar
    6     4    25 1
    7     4    26 1
    8     4    27 1
    9     5     6 ar
   10     5    28 1
   11     6     7 1
   12     7     8 1
   13     7    29 1
   14     7    30 1
   15     8     9 1
   16     8    31 1
   17     8    32 1
   18     9    10 1
   19     9    33 1
   20     9    34 1
   21    10    11 1
   22    10    35 1
   23    10    36 1
   24    11    12 1
   25    11    37 1
   26    11    38 1
   27    12    13 1
   28    13    14 ar
   29    13    18 ar
   30    14    15 ar
   31    14    39 1
   32    15    16 ar
   33    15    40 1
   34    16    17 ar
   35    16    19 1
   36    17    18 ar
   37    17    41 1
   38    18    24 1
   39    19    20 ar
   40    19    23 ar
   41    20    21 ar
   42    21    22 ar
   43    21    42 1
   44    22    23 ar
   45    22    43 1
   46    24    44 1
   47    24    45 1
   48    24    46 1
@<TRIPOS>SUBSTRUCTURE
1   ****   1
@<TRIPOS>MOLECULE
2tmn
26  25  1  0  0
SMALL
FORMAL_CHARGES
@<TRIPOS>ATOM
    1 P1         1.3186     0.7132    -0.0006 P.3        1 ****  0
    2 O1         1.2786     1.7991    -1.0582 O.co2      1 ****  -1
    3 O2         1.0051     1.3192     1.3547 O.co2      1 ****  -1
    4 O3         0.3798    -0.2538    -0.2967 O.co2      1 ****  0
    5 N1         2.7348     0.0683     0.0207 N.pl3      1 ****  0
    6 C1         3.8207     0.1176     0.9517 C.3        1 ****  0
    7 C2         3.8144     1.5738     1.5037 C.2        1 ****  0
    8 O4         3.9924     0.9254     2.5449 O.2        1 ****  0
    9 C3         5.1495    -0.0520     0.0800 C.3        1 ****  0
   10 C4         6.5137     0.7083    -0.0469 C.3        1 ****  0
   11 C5         7.6338    -0.3186    -0.2888 C.3        1 ****  0
   12 C6         6.8713     1.5276     1.2122 C.3        1 ****  0
   13 N2         3.5039     2.9313     1.5734 N.am       1 ****  0
   14 H1         2.8334    -0.9526    -0.0730 H          1 ****  0
   15 H2         3.7364    -0.6518     1.7333 H          1 ****  0
   16 H3         5.1803    -0.6875     0.9773 H          1 ****  0
   17 H4         5.0321    -0.7161    -0.7890 H          1 ****  0
   18 H5         6.4129     1.4136    -0.8850 H          1 ****  0
   19 H6         7.4371    -0.8732    -1.2182 H          1 ****  0
   20 H7         7.6847    -1.0212     0.5561 H          1 ****  0
   21 H8         8.5951     0.2085    -0.3790 H          1 ****  0
   22 H9         6.9119     0.8343     2.0653 H          1 ****  0
   23 H10        6.0600     2.2496     1.3863 H          1 ****  0
   24 H11        7.8330     2.0471     1.0884 H          1 ****  0
   25 H12        3.3363     3.4641     0.7080 H          1 ****  0
   26 H13        3.4422     3.4007     2.4881 H          1 ****  0
@<TRIPOS>BOND
    1     1     2 ar
    2     1     3 ar
    3     1     4 ar
    4     1     5 1
    5     5    14 1
    6     6     5 1
    7     6     7 1
    8     6     9 1
    9     6    15 1
   10     7     8 2
   11     7    13 am
   12     9    10 1
   13     9    16 1
   14     9    17 1
   15    10    11 1
   16    10    12 1
   17    10    18 1
   18    11    19 1
   19    11    20 1
   20    11    21 1
   21    12    22 1
   22    12    23 1
   23    12    24 1
   24    13    25 1
   25    13    26 1
@<TRIPOS>SUBSTRUCTURE
1   ****   1
@<TRIPOS>MOLECULE
2tsc
56  58  1  0  0
SMALL
FORMAL_CHARGES
@<TRIPOS>ATOM
    1 N1         1.1917    -0.6198    -0.0003 N.2        1 ****  0
    2 C1         1.1891     0.6579    -0.0001 C.2        1 ****  0
    3 N2        -0.0152     1.3906     0.0001 N.am       1 ****  0
    4 C2        -1.2312     0.7242     0.0000 C.2        1 ****  0
    5 C3        -2.4065    -1.4400    -0.0002 C.ar       1 ****  0
    6 C4        -2.3606    -2.8294    -0.0004 C.ar       1 ****  0
    7 C5        -1.1348    -3.4853    -0.0005 C.ar       1 ****  0
    8 C6         0.0473    -2.7542    -0.0005 C.ar       1 ****  0
    9 C7        -3.6790    -3.6487    -0.0025 C.3        1 ****  0
   10 N3        -4.9178    -2.8402    -0.1906 N.pl3      1 ****  0
   11 C8        -6.1938    -3.4934     0.0560 C.ar       1 ****  0
   12 C9        -6.2307    -4.8204     0.4684 C.ar       1 ****  0
   13 C10       -7.4514    -5.4658     0.6256 C.ar       1 ****  0
   14 C11       -8.6353    -4.7842     0.3701 C.ar       1 ****  0
   15 C12       -8.5993    -3.4575    -0.0426 C.ar       1 ****  0
   16 C13       -7.3787    -2.8122    -0.1998 C.ar       1 ****  0
   17 C14       -1.2223    -0.7144    -0.0002 C.ar       1 ****  0
   18 C15        0.0021    -1.3659    -0.0003 C.ar       1 ****  0
   19 O1        -2.2968     1.3513     0.0001 O.2        1 ****  0
   20 N4         2.4339     1.3584    -0.0000 N.3        1 ****  0
   21 C16       -5.0196    -2.0150    -1.3933 C.3        1 ****  0
   22 C17       -4.9970    -2.9823    -2.5504 C.1        1 ****  0
   23 C18       -4.9794    -3.7517    -3.4835 C.1        1 ****  0
   24 C19       -9.9181    -5.4624     0.5349 C.2        1 ****  0
   25 O2       -10.9683    -4.8498     0.3129 O.2        1 ****  0
   26 N5        -9.9650    -6.7998     0.9418 N.am       1 ****  0
   27 C20      -11.2415    -7.4076     1.1773 C.3        1 ****  0
   28 C21      -11.0535    -8.8892     1.5428 C.3        1 ****  0
   29 C22      -12.4495    -9.5020     1.7798 C.3        1 ****  0
   30 C23      -12.3309   -10.9434     2.1765 C.2        1 ****  0.0000
   31 O3       -13.3517   -11.6164     2.3607 O.co2      1 ****  -0.50
   32 O4       -11.1074   -11.5071     2.3405 O.co2      1 ****  -0.50
   33 C24      -11.8927    -6.7130     2.3335 C.2        1 ****  0.0000
   34 O5       -13.0535    -6.0355     2.1517 O.co2      1 ****  -0.50
   35 O6       -11.3641    -6.7484     3.4504 O.co2      1 ****  -0.50
   36 H1         0.0081     2.4203     0.0002 H          1 ****  0
   37 H2        -3.3750    -0.9184    -0.0001 H          1 ****  0
   38 H3        -1.1004    -4.5847    -0.0007 H          1 ****  0
   39 H4         1.0168    -3.2739    -0.0006 H          1 ****  0
   40 H5        -3.6263    -4.4010    -0.8033 H          1 ****  0
   41 H6        -3.7583    -4.1950     0.9489 H          1 ****  0
   42 H7        -5.2934    -5.3597     0.6703 H          1 ****  0
   43 H8        -7.4805    -6.5158     0.9523 H          1 ****  0
   44 H9        -9.5366    -2.9185    -0.2447 H          1 ****  0
   45 H10       -7.3498    -1.7623    -0.5267 H          1 ****  0
   46 H11        3.3248     0.8415    -0.0001 H          1 ****  0
   47 H12        2.4392     2.3884     0.0001 H          1 ****  0
   48 H13       -5.9682    -1.4580    -1.3888 H          1 ****  0
   49 H14       -4.1586    -1.3335    -1.4578 H          1 ****  0
   50 H15       -4.9633    -4.4513    -4.3322 H          1 ****  0
   51 H16       -9.0968    -7.3388     1.0701 H          1 ****  0
   52 H17      -11.8608    -7.3265     0.2718 H          1 ****  0
   53 H18      -10.5548    -9.4146     0.7150 H          1 ****  0
   54 H19      -10.4530    -8.9720     2.4608 H          1 ****  0
   55 H20      -12.9604    -8.9459     2.5797 H          1 ****  0
   56 H21      -13.0427    -9.4271     0.8565 H          1 ****  0
@<TRIPOS>BOND
    1     1     2 2
    2     1    18 1
    3     2     3 1
    4     2    20 1
    5     3     4 am
    6     3    36 1
    7     4    17 1
    8     4    19 2
    9     5     6 ar
   10     5    17 ar
   11     5    37 1
   12     6     7 ar
   13     6     9 1
   14     7     8 ar
   15     7    38 1
   16     8    18 ar
   17     8    39 1
   18     9    10 1
   19     9    40 1
   20     9    41 1
   21    10    11 1
   22    10    21 1
   23    11    12 ar
   24    11    16 ar
   25    12    13 ar
   26    12    42 1
   27    13    14 ar
   28    13    43 1
   29    14    15 ar
   30    14    24 1
   31    15    16 ar
   32    15    44 1
   33    16    45 1
   34    17    18 ar
   35    20    46 1
   36    20    47 1
   37    21    22 1
   38    21    48 1
   39    21    49 1
   40    22    23 3
   41    23    50 1
   42    24    25 2
   43    24    26 am
   44    26    51 1
   45    27    26 1
   46    27    28 1
   47    27    33 1
   48    27    52 1
   49    28    29 1
   50    28    53 1
   51    28    54 1
   52    29    30 1
   53    29    55 1
   54    29    56 1
   55    30    31 ar
   56    30    32 ar
   57    33    34 ar
   58    33    35 ar
@<TRIPOS>SUBSTRUCTURE
1   ****   1
@<TRIPOS>MOLECULE
2yhx
40  41  1  0  0
SMALL
FORMAL_CHARGES
@<TRIPOS>ATOM
    1 C1         1.2333    -0.5947     0.2671 C.3        1 ****  0
    2 O1         2.4396    -1.1655    -0.2427 O.3        1 ****  0
    3 C2         0.0295    -1.3826    -0.3061 C.3        1 ****  0
    4 N1         0.0074    -1.4382    -1.8124 N.am       1 ****  0
    5 C3        -1.2785    -0.7583     0.2980 C.3        1 ****  0
    6 O2        -1.2802    -0.8961     1.7408 O.3        1 ****  0
    7 C4        -1.3555     0.7296    -0.0698 C.3        1 ****  0
    8 O3        -1.5046     0.8433    -1.4671 O.3        1 ****  0
    9 C5        -0.0703     1.5179    -0.6419 C.3        1 ****  0
   10 O4         1.1535     0.8074    -0.0750 O.3        1 ****  0
   11 C6        -0.0267     2.9425     0.0612 C.3        1 ****  0
   12 O5         0.0690     3.1303    -1.3650 O.3        1 ****  0
   13 C7         0.1399     0.5635    -5.0537 C.ar       1 ****  0
   14 C8         0.2106    -0.5345    -4.1795 C.ar       1 ****  0
   15 C9         0.1020    -1.8164    -4.6949 C.ar       1 ****  0
   16 C10       -0.0477    -2.0239    -6.0620 C.ar       1 ****  0
   17 C11       -0.0992    -0.9390    -6.9246 C.ar       1 ****  0
   18 C12       -0.0182     0.3500    -6.4146 C.ar       1 ****  0
   19 C13        0.1715     1.9930    -4.5708 C.3        1 ****  0
   20 C14        0.3971    -0.3680    -2.7114 C.2        1 ****  0
   21 O6         0.8296     0.6955    -2.2821 O.2        1 ****  0
   22 H1         1.2300    -0.6824     1.3601 H          1 ****  0
   23 H2         3.2171    -0.6940     0.1413 H          1 ****  0
   24 H3         0.0924    -2.4251     0.0378 H          1 ****  0
   25 H4        -0.3111    -2.2842    -2.2206 H          1 ****  0
   26 H5        -2.1592    -1.2866    -0.0919 H          1 ****  0
   27 H6        -0.5268    -0.4278     2.1553 H          1 ****  0
   28 H7        -2.2364     1.1864     0.3993 H          1 ****  0
   29 H8        -2.3272     0.3704    -1.7484 H          1 ****  0
   30 H9        -0.0935     1.5978    -1.7327 H          1 ****  0
   31 H10        0.8142     3.4231     0.5384 H          1 ****  0
   32 H11       -0.9306     3.4167     0.4217 H          1 ****  0
   33 H12       -0.7527     2.8289    -1.8106 H          1 ****  0
   34 H13        0.1337    -2.6566    -4.0332 H          1 ****  0
   35 H14       -0.1229    -3.0191    -6.4478 H          1 ****  0
   36 H15       -0.2010    -1.0947    -7.9783 H          1 ****  0
   37 H16       -0.0785     1.1870    -7.0785 H          1 ****  0
   38 H17        1.0927     2.0293    -3.9726 H          1 ****  0
   39 H18       -0.6485     2.0230    -3.8398 H          1 ****  0
   40 H19        0.1153     2.6654    -5.2757 H          1 ****  0
@<TRIPOS>BOND
    1     1     2 1
    2     1     3 1
    3     1    10 1
    4     1    22 1
    5     2    23 1
    6     3     4 1
    7     3     5 1
    8     3    24 1
    9     4    20 am
   10     4    25 1
   11     5     6 1
   12     5     7 1
   13     5    26 1
   14     6    27 1
   15     7     8 1
   16     7     9 1
   17     7    28 1
   18     8    29 1
   19     9    10 1
   20     9    11 1
   21     9    30 1
   22    11    12 1
   23    11    31 1
   24    11    32 1
   25    12    33 1
   26    13    14 ar
   27    13    18 ar
   28    13    19 1
   29    14    15 ar
   30    14    20 1
   31    15    16 ar
   32    15    34 1
   33    16    17 ar
   34    16    35 1
   35    17    18 ar
   36    17    36 1
   37    18    37 1
   38    19    38 1
   39    19    39 1
   40    19    40 1
   41    20    21 2
@<TRIPOS>SUBSTRUCTURE
1   ****   1
@<TRIPOS>MOLECULE
2ypi
11  10  1  0  0
SMALL
FORMAL_CHARGES
@<TRIPOS>ATOM
    1 P1         1.3976     0.7329     0.0284 P.3        1 ****  0
    2 O1         1.3492     1.6890    -1.1480 O.2        1 ****  -1
    3 O2         0.3167    -0.1235    -0.0287 O.2        1 ****  0
    4 O3         1.3509     1.5219     1.3228 O.2        1 ****  -1
    5 O4         2.7107    -0.0856    -0.0271 O.3        1 ****  0
    6 C1         3.8246     0.8076     0.0213 C.3        1 ****  0
    7 C2         5.1015     0.0195     0.0006 C.2        1 ****  0.0000
    8 O5         5.0599    -1.3381    -0.0279 O.co2      1 ****  -0.50
    9 O6         6.1890     0.6048     0.0121 O.co2      1 ****  -0.50
   10 H1         3.7945     1.4786    -0.8498 H          1 ****  0
   11 H2         3.7778     1.4039     0.9445 H          1 ****  0
@<TRIPOS>BOND
    1     1     2 1
    2     1     3 2
    3     1     4 1
    4     1     5 1
    5     5     6 1
    6     6     7 1
    7     6    10 1
    8     6    11 1
    9     7     8 ar
   10     7     9 ar
@<TRIPOS>SUBSTRUCTURE
1   ****   1
@<TRIPOS>MOLECULE
3cla
32  32  1  0  0
SMALL
FORMAL_CHARGES
@<TRIPOS>ATOM
    1 C1         7.4044    -1.6188     0.4766 C.3        1 ****  0
    2 Cl1        7.3221    -2.7360    -0.8803 Cl         1 ****  0
    3 Cl2        8.8451    -0.6144     0.3789 Cl         1 ****  0
    4 C2         6.1755    -0.7609     0.5158 C.2        1 ****  0
    5 O1         6.2779     0.4441     0.7736 O.2        1 ****  0
    6 N1         4.9207    -1.3295     0.2582 N.am       1 ****  0
    7 C3         3.7182    -0.5485     0.3731 C.3        1 ****  0
    8 C4         3.5876    -0.0538     1.8373 C.3        1 ****  0
    9 O2         3.5451    -1.1796     2.7146 O.3        1 ****  0
   10 C5         2.5075    -1.4476     0.0060 C.3        1 ****  0
   11 O3         2.7066    -2.0178    -1.2886 O.3        1 ****  0
   12 C6         1.1961    -0.6908    -0.0001 C.ar       1 ****  0
   13 C7        -0.0073    -1.3859    -0.0003 C.ar       1 ****  0
   14 C8        -1.2107    -0.6909    -0.0003 C.ar       1 ****  0
   15 C9        -1.2101     0.6988    -0.0001 C.ar       1 ****  0
   16 N2        -2.4200     1.3969    -0.0001 N.pl3      1 ****  0.0000
   17 O4        -2.4193     2.6885     0.0001 O.2        1 ****  0.0000
   18 O5        -3.4387     0.8095    -0.0002 O.2        1 ****  0.0000
   19 C10       -0.0065     1.3941     0.0001 C.ar       1 ****  0
   20 C11        1.1969     0.6991     0.0001 C.ar       1 ****  0
   21 H1         7.4592    -2.2077     1.4040 H          1 ****  0
   22 H2         4.8588    -2.3201    -0.0172 H          1 ****  0
   23 H3         3.7486     0.3180    -0.3038 H          1 ****  0
   24 H4         4.4533     0.5758     2.0906 H          1 ****  0
   25 H5         2.6626     0.5313     1.9470 H          1 ****  0
   26 H6         4.3773    -1.7071     2.6183 H          1 ****  0
   27 H7         2.4463    -2.2279     0.7790 H          1 ****  0
   28 H8         3.5329    -2.5631    -1.2847 H          1 ****  0
   29 H9        -0.0072    -2.4859    -0.0004 H          1 ****  0
   30 H10       -2.1635    -1.2407    -0.0004 H          1 ****  0
   31 H11       -0.0066     2.4941     0.0003 H          1 ****  0
   32 H12        2.1497     1.2488     0.0003 H          1 ****  0
@<TRIPOS>BOND
    1     1     2 1
    2     1     3 1
    3     1     4 1
    4     1    21 1
    5     4     5 2
    6     4     6 am
    7     6    22 1
    8     7     6 1
    9     7     8 1
   10     7    10 1
   11     7    23 1
   12     8     9 1
   13     8    24 1
   14     8    25 1
   15     9    26 1
   16    10    11 1
   17    10    12 1
   18    10    27 1
   19    11    28 1
   20    12    13 ar
   21    12    20 ar
   22    13    14 ar
   23    13    29 1
   24    14    15 ar
   25    14    30 1
   26    15    16 1
   27    15    19 ar
   28    16    17 2
   29    16    18 2
   30    19    20 ar
   31    19    31 1
   32    20    32 1
@<TRIPOS>SUBSTRUCTURE
1   ****   1
@<TRIPOS>MOLECULE
3cpa
30  30  1  0  0
SMALL
FORMAL_CHARGES
@<TRIPOS>ATOM
    1 N1         8.5666    -0.6391    -0.4080 N.3        1 ****  0
    2 C1         7.3949    -1.5088    -0.2318 C.3        1 ****  0
    3 C2         6.1473    -0.6772    -0.2695 C.2        1 ****  0
    4 O1         6.2269     0.5470    -0.4216 O.2        1 ****  0
    5 N2         4.8986    -1.2855    -0.1282 N.am       1 ****  0
    6 C3         3.7169    -1.3359    -0.9690 C.3        1 ****  0
    7 C4         3.6389     0.0293    -1.6547 C.2        1 ****  0.0000
    8 O2         3.5285    -0.7517    -2.6060 O.co2      1 ****  -0.50
    9 C5         2.4993    -1.4436    -0.0031 C.3        1 ****  0
   10 C6         1.1920    -0.6884    -0.0001 C.ar       1 ****  0
   11 C7        -0.0114    -1.3835    -0.0003 C.ar       1 ****  0
   12 C8         1.1928     0.7015     0.0001 C.ar       1 ****  0
   13 C9        -1.2147    -0.6886    -0.0003 C.ar       1 ****  0
   14 C10       -0.0106     1.3965     0.0001 C.ar       1 ****  0
   15 C11       -1.2141     0.7012    -0.0001 C.ar       1 ****  0
   16 O3        -2.4168     1.3951    -0.0001 O.3        1 ****  0
   17 O4         3.7015     1.3669    -1.8766 O.co2      1 ****  -0.50
   18 H1         8.5962     0.0575     0.3501 H          1 ****  0
   19 H2         8.5042    -0.1560    -1.3156 H          1 ****  0
   20 H3         7.3643    -2.2521    -1.0421 H          1 ****  0
   21 H4         7.4619    -2.0246     0.7374 H          1 ****  0
   22 H5         4.8368    -2.2958     0.0628 H          1 ****  0
   23 H6         3.7315    -2.1671    -1.6893 H          1 ****  0
   24 H7         2.4712    -2.2088    -0.7928 H          1 ****  0
   25 H8         2.6257    -1.9482     0.9662 H          1 ****  0
   26 H9        -0.0113    -2.4835    -0.0004 H          1 ****  0
   27 H10        2.1457     1.2512     0.0003 H          1 ****  0
   28 H11       -2.1675    -1.2383    -0.0004 H          1 ****  0
   29 H12       -0.0107     2.4965     0.0003 H          1 ****  0
   30 H13       -2.9031     1.0638     0.7961 H          1 ****  0
@<TRIPOS>BOND
    1     1     2 1
    2     1    18 1
    3     1    19 1
    4     2     3 1
    5     2    20 1
    6     2    21 1
    7     3     4 2
    8     3     5 am
    9     5    22 1
   10     6     5 1
   11     6     7 1
   12     6     9 1
   13     6    23 1
   14     7     8 ar
   15     7    17 ar
   16     9    10 1
   17     9    24 1
   18     9    25 1
   19    10    11 ar
   20    10    12 ar
   21    11    13 ar
   22    11    26 1
   23    12    14 ar
   24    12    27 1
   25    13    15 ar
   26    13    28 1
   27    14    15 ar
   28    14    29 1
   29    15    16 1
   30    16    30 1
@<TRIPOS>SUBSTRUCTURE
1   ****   1
@<TRIPOS>MOLECULE
3erd
40  41  1  0  0
SMALL
FORMAL_CHARGES
@<TRIPOS>ATOM
    1 C1         2.3427    -3.3597     1.6391 C.3        1 ****  0
    2 C2         2.3428    -2.9567     0.1407 C.3        1 ****  0
    3 C3         2.5281    -1.4565    -0.0012 C.2        1 ****  0
    4 C4         1.1920    -0.6884    -0.0001 C.ar       1 ****  0
    5 C5         1.1928     0.7015     0.0001 C.ar       1 ****  0
    6 C6        -0.0106     1.3965     0.0001 C.ar       1 ****  0
    7 C7        -1.2141     0.7012    -0.0001 C.ar       1 ****  0
    8 O1        -2.4168     1.3951    -0.0001 O.3        1 ****  0
    9 C8        -1.2147    -0.6886    -0.0003 C.ar       1 ****  0
   10 C9        -0.0114    -1.3835    -0.0003 C.ar       1 ****  0
   11 C10        3.7825    -0.8879    -0.1149 C.2        1 ****  0
   12 C11        5.1244    -1.6601    -0.1159 C.ar       1 ****  0
   13 C12        5.2297    -3.0481    -0.1311 C.ar       1 ****  0
   14 C13        6.4802    -3.6540    -0.1580 C.ar       1 ****  0
   15 C14        7.6300    -2.8732    -0.1702 C.ar       1 ****  0
   16 O2         8.8796    -3.4779    -0.1971 O.3        1 ****  0
   17 C15        7.5300    -1.4871    -0.1553 C.ar       1 ****  0
   18 C16        6.2797    -0.8813    -0.1283 C.ar       1 ****  0
   19 C17        3.9679     0.6124    -0.2567 C.3        1 ****  0
   20 C18        3.9688     1.0154    -1.7550 C.3        1 ****  0
   21 H1         1.5216    -2.8384     2.1531 H          1 ****  0
   22 H2         3.3002    -3.0639     2.0925 H          1 ****  0
   23 H3         2.2080    -4.4473     1.7337 H          1 ****  0
   24 H4         3.1634    -3.4754    -0.3765 H          1 ****  0
   25 H5         1.3865    -3.2500    -0.3170 H          1 ****  0
   26 H6         2.1457     1.2512     0.0003 H          1 ****  0
   27 H7        -0.0107     2.4965     0.0003 H          1 ****  0
   28 H8        -2.3730     1.9819    -0.7962 H          1 ****  0
   29 H9        -2.1675    -1.2383    -0.0004 H          1 ****  0
   30 H10       -0.0113    -2.4835    -0.0004 H          1 ****  0
   31 H11        4.3205    -3.6672    -0.1216 H          1 ****  0
   32 H12        6.5599    -4.7510    -0.1698 H          1 ****  0
   33 H13        8.8649    -4.0587    -0.9988 H          1 ****  0
   34 H14        8.4404    -0.8697    -0.1649 H          1 ****  0
   35 H15        6.2018     0.2159    -0.1167 H          1 ****  0
   36 H16        4.9242     0.9074     0.2001 H          1 ****  0
   37 H17        3.1471     1.1316     0.2596 H          1 ****  0
   38 H18        3.0115     0.7197    -2.2090 H          1 ****  0
   39 H19        4.7901     0.4942    -2.2686 H          1 ****  0
   40 H20        4.1035     2.1030    -1.8495 H          1 ****  0
@<TRIPOS>BOND
    1     1     2 1
    2     1    21 1
    3     1    22 1
    4     1    23 1
    5     2     3 1
    6     2    24 1
    7     2    25 1
    8     3     4 1
    9     3    11 2
   10     4     5 ar
   11     4    10 ar
   12     5     6 ar
   13     5    26 1
   14     6     7 ar
   15     6    27 1
   16     7     8 1
   17     7     9 ar
   18     8    28 1
   19     9    10 ar
   20     9    29 1
   21    10    30 1
   22    11    12 1
   23    11    19 1
   24    12    13 ar
   25    12    18 ar
   26    13    14 ar
   27    13    31 1
   28    14    15 ar
   29    14    32 1
   30    15    16 1
   31    15    17 ar
   32    16    33 1
   33    17    18 ar
   34    17    34 1
   35    18    35 1
   36    19    20 1
   37    19    36 1
   38    19    37 1
   39    20    38 1
   40    20    39 1
   41    20    40 1
@<TRIPOS>SUBSTRUCTURE
1   ****   1
@<TRIPOS>MOLECULE
3ert
59  61  1  0  0
SMALL
FORMAL_CHARGES
@<TRIPOS>ATOM
    1 C1         4.3053     1.2968    -0.9706 C.3        1 ****  0
    2 C2         3.9660     0.6044     0.3748 C.3        1 ****  0
    3 C3         3.7871    -0.8835     0.1544 C.2        1 ****  0
    4 C4         5.1038    -1.6425     0.1164 C.ar       1 ****  0
    5 C5         5.2816    -2.7625    -0.6890 C.ar       1 ****  0
    6 C6         6.5538    -3.2904    -0.8801 C.ar       1 ****  0
    7 C7         7.6505    -2.6980    -0.2666 C.ar       1 ****  0
    8 C8         7.4766    -1.5777     0.5382 C.ar       1 ****  0
    9 C9         6.2056    -1.0503     0.7291 C.ar       1 ****  0
   10 C10        2.5504    -1.4711    -0.0023 C.2        1 ****  0
   11 C11        1.1920    -0.6884    -0.0001 C.ar       1 ****  0
   12 C12        1.1928     0.7015     0.0001 C.ar       1 ****  0
   13 C13       -0.0106     1.3965     0.0001 C.ar       1 ****  0
   14 C14       -1.2141     0.7012    -0.0001 C.ar       1 ****  0
   15 O1        -2.4168     1.3951    -0.0001 O.3        1 ****  0
   16 C15       -1.2147    -0.6886    -0.0003 C.ar       1 ****  0
   17 C16       -0.0114    -1.3835    -0.0003 C.ar       1 ****  0
   18 C17        2.4435    -2.9786    -0.1306 C.ar       1 ****  0
   19 C18        2.9204    -3.7798     0.9023 C.ar       1 ****  0
   20 C19        2.7409    -5.1571     0.8546 C.ar       1 ****  0
   21 C20        2.0841    -5.7348    -0.2255 C.ar       1 ****  0
   22 O2         1.9039    -7.1170    -0.2737 O.3        1 ****  0
   23 C21        2.4674    -7.7436     0.8847 C.3        1 ****  0
   24 C22        2.2338    -9.2644     0.7994 C.3        1 ****  0
   25 N1         2.7929    -9.9290     1.9875 N.4        1 ****  1
   26 C23        2.5426   -11.3748     1.8988 C.3        1 ****  0
   27 C24        4.2423    -9.6875     2.0574 C.3        1 ****  0
   28 C25        1.6067    -4.9361    -1.2578 C.ar       1 ****  0
   29 C26        1.7861    -3.5590    -1.2101 C.ar       1 ****  0
   30 H1         3.4860     1.1282    -1.6850 H          1 ****  0
   31 H2         5.2357     0.8721    -1.3756 H          1 ****  0
   32 H3         4.4347     2.3770    -0.8081 H          1 ****  0
   33 H4         3.0356     1.0278     0.7811 H          1 ****  0
   34 H5         4.7851     0.7720     1.0896 H          1 ****  0
   35 H6         4.4139    -3.2316    -1.1759 H          1 ****  0
   36 H7         6.6917    -4.1767    -1.5167 H          1 ****  0
   37 H8         8.6569    -3.1156    -0.4177 H          1 ****  0
   38 H9         8.3452    -1.1090     1.0238 H          1 ****  0
   39 H10        6.0691    -0.1634     1.3653 H          1 ****  0
   40 H11        2.1457     1.2512     0.0003 H          1 ****  0
   41 H12       -0.0107     2.4965     0.0003 H          1 ****  0
   42 H13       -2.3730     1.9819    -0.7962 H          1 ****  0
   43 H14       -2.1675    -1.2383    -0.0004 H          1 ****  0
   44 H15       -0.0113    -2.4835    -0.0004 H          1 ****  0
   45 H16        3.4398    -3.3226     1.7574 H          1 ****  0
   46 H17        3.1185    -5.7897     1.6714 H          1 ****  0
   47 H18        3.5476    -7.5399     0.9243 H          1 ****  0
   48 H19        1.9833    -7.3485     1.7901 H          1 ****  0
   49 H20        2.7226    -9.6601    -0.1031 H          1 ****  0
   50 H21        1.1538    -9.4656     0.7436 H          1 ****  0
   51 H22        2.3441    -9.5497     2.8335 H          1 ****  0
   52 H23        3.0225   -11.7775     0.9946 H          1 ****  0
   53 H24        1.4592   -11.5595     1.8522 H          1 ****  0
   54 H25        2.9598   -11.8737     2.7860 H          1 ****  0
   55 H26        4.4295    -8.6055     2.1210 H          1 ****  0
   56 H27        4.7233   -10.0885     1.1531 H          1 ****  0
   57 H28        4.6578   -10.1852     2.9461 H          1 ****  0
   58 H29        1.0870    -5.3940    -2.1124 H          1 ****  0
   59 H30        1.4078    -2.9271    -2.0272 H          1 ****  0
@<TRIPOS>BOND
    1     1     2 1
    2     1    30 1
    3     1    31 1
    4     1    32 1
    5     2     3 1
    6     2    33 1
    7     2    34 1
    8     3     4 1
    9     3    10 2
   10     4     5 ar
   11     4     9 ar
   12     5     6 ar
   13     5    35 1
   14     6     7 ar
   15     6    36 1
   16     7     8 ar
   17     7    37 1
   18     8     9 ar
   19     8    38 1
   20     9    39 1
   21    10    11 1
   22    10    18 1
   23    11    12 ar
   24    11    17 ar
   25    12    13 ar
   26    12    40 1
   27    13    14 ar
   28    13    41 1
   29    14    15 1
   30    14    16 ar
   31    15    42 1
   32    16    17 ar
   33    16    43 1
   34    17    44 1
   35    18    19 ar
   36    18    29 ar
   37    19    20 ar
   38    19    45 1
   39    20    21 ar
   40    20    46 1
   41    21    22 1
   42    21    28 ar
   43    22    23 1
   44    23    24 1
   45    23    47 1
   46    23    48 1
   47    24    25 1
   48    24    49 1
   49    24    50 1
   50    25    26 1
   51    25    27 1
   52    25    51 1
   53    26    52 1
   54    26    53 1
   55    26    54 1
   56    27    55 1
   57    27    56 1
   58    27    57 1
   59    28    29 ar
   60    28    58 1
   61    29    59 1
@<TRIPOS>SUBSTRUCTURE
1   ****   1
@<TRIPOS>MOLECULE
3gpb
27  27  1  0  0
SMALL
FORMAL_CHARGES
@<TRIPOS>ATOM
    1 C1         0.3867    -0.1727     0.8867 C.3        1 ****  0
    2 C2        -0.1025    -1.3436     0.9635 C.3        1 ****  0
    3 C3        -1.2553    -0.8227    -0.8584 C.3        1 ****  0
    4 C4        -1.4314     0.9830     0.4150 C.3        1 ****  0
    5 C5        -0.0580     1.5679    -0.2022 C.3        1 ****  0
    6 C6        -0.3257     2.3829     1.0865 C.3        1 ****  0
    7 O1         1.6453    -1.0131     1.7715 O.3        1 ****  0
    8 O2        -0.0861    -2.7242     0.3910 O.3        1 ****  0
    9 O3        -2.4768    -1.3922    -0.2663 O.3        1 ****  0
   10 O4        -2.5063     1.4000    -0.5454 O.3        1 ****  0
   11 O5         1.2120     0.7565    -0.1846 O.3        1 ****  0
   12 O6        -0.7101     1.5814     2.0923 O.3        1 ****  0
   13 P1         0.9010    -0.7826     3.1619 P.3        1 ****  0
   14 O7         1.1453     0.6292     3.6803 O.2        1 ****  -1
   15 O8        -0.5822    -1.0723     3.0712 O.2        1 ****  -1
   16 O9         1.4435    -1.6529     4.0826 O.2        1 ****  0
   17 H1        -0.4260     0.3201     1.4360 H          1 ****  0
   18 H2        -0.1240    -1.2903     2.0617 H          1 ****  0
   19 H3        -1.1470    -1.0128    -1.9195 H          1 ****  0
   20 H4        -1.5890     1.2984     1.4552 H          1 ****  0
   21 H5         0.0601     2.3464    -0.9693 H          1 ****  0
   22 H6        -1.0972     3.1081     0.8975 H          1 ****  0
   23 H7         0.5734     2.9051     1.3728 H          1 ****  0
   24 H8        -0.1231    -2.6904     1.3743 H          1 ****  0
   25 H9        -2.5082    -2.2587     0.2103 H          1 ****  0
   26 H10       -2.7147     1.6177     0.3970 H          1 ****  0
   27 H11       -0.0982     0.9086     2.0894 H          1 ****  0
@<TRIPOS>BOND
    1     1     2 1
    2     1     7 1
    3     1    11 1
    4     1    17 1
    5     2     3 1
    6     2     8 1
    7     2    18 1
    8     3     4 1
    9     3     9 1
   10     3    19 1
   11     4     5 1
   12     4    10 1
   13     4    20 1
   14     5     6 1
   15     5    11 1
   16     5    21 1
   17     6    12 1
   18     6    22 1
   19     6    23 1
   20     7    13 1
   21     8    24 1
   22     9    25 1
   23    10    26 1
   24    12    27 1
   25    13    14 1
   26    13    15 1
   27    13    16 2
@<TRIPOS>SUBSTRUCTURE
1   ****   1
@<TRIPOS>MOLECULE
3hvt
34  37  1  0  0
SMALL
FORMAL_CHARGES
@<TRIPOS>ATOM
    1 N1         2.2950     1.8324     0.2253 N.ar       1 ****  0
    2 C1         3.5756     1.4895     0.1890 C.ar       1 ****  0
    3 C2         3.9330     0.1587     0.0613 C.ar       1 ****  0
    4 C3         2.9270    -0.7887    -0.0209 C.ar       1 ****  0
    5 C4         1.5926    -0.4028     0.0229 C.ar       1 ****  0
    6 N2         0.6917    -1.4552    -0.0646 N.am       1 ****  0
    7 C5        -0.6930    -1.4970    -0.0653 C.2        1 ****  0
    8 C6        -1.6249    -0.3839     0.0170 C.ar       1 ****  0
    9 C7        -2.9637    -0.7543    -0.0302 C.ar       1 ****  0
   10 C8        -3.9593     0.2051     0.0372 C.ar       1 ****  0
   11 C9        -3.5868     1.5328     0.1553 C.ar       1 ****  0
   12 N3        -2.3025     1.8607     0.2005 N.ar       1 ****  0
   13 C10       -1.3137     0.9712     0.1354 C.ar       1 ****  0
   14 N4        -0.0053     1.5584     0.1974 N.pl3      1 ****  0
   15 C11        1.2963     0.9551     0.1474 C.ar       1 ****  0
   16 C12        3.2772    -2.2390    -0.1563 C.3        1 ****  0
   17 O1        -1.2012    -2.6230    -0.1504 O.2        1 ****  0
   18 C13        0.0035     3.0329     0.2647 C.3        1 ****  0
   19 C14       -0.5099     3.7183     1.4668 C.3        1 ****  0
   20 C15       -1.2588     3.7853     0.1271 C.3        1 ****  0
   21 H1         4.3541     2.2633     0.2605 H          1 ****  0
   22 H2         4.9913    -0.1392     0.0258 H          1 ****  0
   23 H3         1.1372    -2.3805    -0.1441 H          1 ****  0
   24 H4        -3.2338    -1.8167    -0.1217 H          1 ****  0
   25 H5        -5.0208    -0.0808    -0.0021 H          1 ****  0
   26 H6        -4.3565     2.3167     0.2116 H          1 ****  0
   27 H7         3.9188    -2.4609     0.7093 H          1 ****  0
   28 H8         3.9099    -2.2985    -1.0541 H          1 ****  0
   29 H9         2.4031    -2.9043    -0.2131 H          1 ****  0
   30 H10        0.9635     3.0525    -0.2719 H          1 ****  0
   31 H11        0.0248     4.6582     1.6683 H          1 ****  0
   32 H12       -1.0031     3.0223     2.1613 H          1 ****  0
   33 H13       -2.1381     3.1244     0.1321 H          1 ****  0
   34 H14       -1.1090     4.7593    -0.3616 H          1 ****  0
@<TRIPOS>BOND
    1     1     2 ar
    2     1    15 ar
    3     2     3 ar
    4     2    21 1
    5     3     4 ar
    6     3    22 1
    7     4     5 ar
    8     4    16 1
    9     5     6 1
   10     5    15 ar
   11     6     7 am
   12     6    23 1
   13     7     8 1
   14     7    17 2
   15     8     9 ar
   16     8    13 ar
   17     9    10 ar
   18     9    24 1
   19    10    11 ar
   20    10    25 1
   21    11    12 ar
   22    11    26 1
   23    12    13 ar
   24    13    14 1
   25    14    15 1
   26    14    18 1
   27    16    27 1
   28    16    28 1
   29    16    29 1
   30    18    19 1
   31    18    20 1
   32    18    30 1
   33    19    20 1
   34    19    31 1
   35    19    32 1
   36    20    33 1
   37    20    34 1
@<TRIPOS>SUBSTRUCTURE
1   ****   1
@<TRIPOS>MOLECULE
3tpi
38  37  1  0  0
SMALL
FORMAL_CHARGES
@<TRIPOS>ATOM
    1 N1         4.0432     1.6734    -1.1245 N.4        1 ****  1
    2 C1         3.9867     0.8629     0.0995 C.3        1 ****  0
    3 C2         5.2732     0.0694     0.2125 C.2        1 ****  0
    4 O1         5.3265    -0.9941     0.8420 O.2        1 ****  0
    5 C3         2.7147    -0.0309     0.0873 C.3        1 ****  0
    6 C4         1.4814     0.8705    -0.1137 C.3        1 ****  0
    7 C5         2.5536    -0.7923     1.4235 C.3        1 ****  0
    8 C6         0.2066     0.0067    -0.1538 C.3        1 ****  0
    9 N2         6.4212     0.5437    -0.4202 N.am       1 ****  0
   10 C7         7.6516    -0.1860    -0.3224 C.3        1 ****  0
   11 C8         8.7608     0.7513     0.0571 C.2        1 ****  0.0000
   12 O2         9.9375     0.4391    -0.1584 O.co2      1 ****  -0.50
   13 C9         7.9889    -0.8735    -1.6628 C.3        1 ****  0
   14 C10        8.1080     0.1917    -2.7695 C.3        1 ****  0
   15 C11        6.8822    -1.8771    -2.0384 C.3        1 ****  0
   16 O3         8.4707     1.9400     0.6454 O.co2      1 ****  -0.50
   17 H1         4.1403     1.0610    -1.9470 H          1 ****  0
   18 H2         4.8419     2.3222    -1.0796 H          1 ****  0
   19 H3         3.1721     2.2164    -1.2094 H          1 ****  0
   20 H4         3.9063     1.5001     0.9925 H          1 ****  0
   21 H5         2.8097    -0.7641    -0.7272 H          1 ****  0
   22 H6         1.4116     1.5865     0.7184 H          1 ****  0
   23 H7         1.5795     1.4210    -1.0610 H          1 ****  0
   24 H8         2.4808    -0.0600     2.2411 H          1 ****  0
   25 H9         3.4428    -1.4200     1.5822 H          1 ****  0
   26 H10        1.6501    -1.4192     1.3986 H          1 ****  0
   27 H11        0.1078    -0.5433     0.7937 H          1 ****  0
   28 H12        0.2764    -0.7094    -0.9859 H          1 ****  0
   29 H13       -0.6726     0.6519    -0.2974 H          1 ****  0
   30 H14        6.3855     1.4205    -0.9594 H          1 ****  0
   31 H15        7.5395    -0.9622     0.4489 H          1 ****  0
   32 H16        8.9425    -1.4118    -1.5587 H          1 ****  0
   33 H17        8.9069     0.9025    -2.5117 H          1 ****  0
   34 H18        7.1543     0.7315    -2.8649 H          1 ****  0
   35 H19        8.3484    -0.2972    -3.7251 H          1 ****  0
   36 H20        5.9252    -1.3428    -2.1309 H          1 ****  0
   37 H21        6.7989    -2.6369    -1.2473 H          1 ****  0
   38 H22        7.1283    -2.3634    -2.9939 H          1 ****  0
@<TRIPOS>BOND
    1     1    17 1
    2     1    18 1
    3     1    19 1
    4     2     1 1
    5     2     3 1
    6     2     5 1
    7     2    20 1
    8     3     4 2
    9     3     9 am
   10     5     6 1
   11     5     7 1
   12     5    21 1
   13     6     8 1
   14     6    22 1
   15     6    23 1
   16     7    24 1
   17     7    25 1
   18     7    26 1
   19     8    27 1
   20     8    28 1
   21     8    29 1
   22     9    30 1
   23    10     9 1
   24    10    11 1
   25    10    13 1
   26    10    31 1
   27    11    12 ar
   28    11    16 ar
   29    13    14 1
   30    13    15 1
   31    13    32 1
   32    14    33 1
   33    14    34 1
   34    14    35 1
   35    15    36 1
   36    15    37 1
   37    15    38 1
@<TRIPOS>SUBSTRUCTURE
1   ****   1
@<TRIPOS>MOLECULE
4aah
27  29  1  0  0
SMALL
FORMAL_CHARGES
@<TRIPOS>ATOM
    1 N1         2.6010     0.9862    -0.0005 N.ar       1 ****  0
    2 C1         3.3533    -0.1068    -0.0003 C.ar       1 ****  0
    3 C2         4.8106    -0.0917    -0.0004 C.2        1 ****  0.0000
    4 O1         5.4099     0.9900    -0.0005 O.co2      1 ****  -0.50
    5 O2         5.5076    -1.2545    -0.0002 O.co2      1 ****  -0.50
    6 C3         2.5527    -1.2431    -0.0001 C.ar       1 ****  0
    7 C4         1.2671    -0.7254    -0.0000 C.ar       1 ****  0
    8 C5         1.3166     0.6605    -0.0001 C.ar       1 ****  0
    9 C6         0.0500    -1.4544     0.0001 C.2        1 ****  0
   10 O3         0.0449    -2.6910     0.0000 O.2        1 ****  0
   11 C7        -1.1837    -0.7006    -0.0001 C.2        1 ****  0
   12 O4        -2.2655    -1.2971    -0.0001 O.2        1 ****  0
   13 C8        -1.1599     0.7871    -0.0000 C.ar       1 ****  0
   14 N2        -2.3432     1.3957     0.0001 N.ar       1 ****  0
   15 C9        -2.4437     2.7136     0.0002 C.ar       1 ****  0
   16 C10       -3.7523     3.3568     0.0003 C.2        1 ****  0.0000
   17 O5        -4.7808     2.6724     0.0004 O.co2      1 ****  -0.50
   18 O6        -3.8361     4.7132     0.0006 O.co2      1 ****  -0.50
   19 C11       -1.3023     3.4913     0.0003 C.ar       1 ****  0
   20 C12       -0.0420     2.9152     0.0003 C.ar       1 ****  0
   21 C13        1.0573     3.9238     0.0008 C.2        1 ****  0.0000
   22 O7         0.7343     5.1166    -0.0003 O.co2      1 ****  -0.50
   23 O8         2.3433     3.6422     0.0038 O.co2      1 ****  -0.50
   24 C14        0.0410     1.5039     0.0001 C.ar       1 ****  0
   25 H1         2.9609     1.8480    -0.0015 H          1 ****  0
   26 H2         2.8557    -2.2693     0.0000 H          1 ****  0
   27 H3        -1.3928     4.5574     0.0003 H          1 ****  0
@<TRIPOS>BOND
    1     1     2 ar
    2     1     8 ar
    3     1    25 1
    4     2     3 1
    5     2     6 ar
    6     3     4 ar
    7     3     5 ar
    8     6     7 ar
    9     6    26 1
   10     7     8 ar
   11     7     9 1
   12     8    24 1
   13     9    10 2
   14     9    11 1
   15    11    12 2
   16    11    13 1
   17    13    14 ar
   18    13    24 ar
   19    14    15 ar
   20    15    16 1
   21    15    19 ar
   22    16    17 ar
   23    16    18 ar
   24    19    20 ar
   25    19    27 1
   26    20    21 1
   27    20    24 ar
   28    21    22 ar
   29    21    23 ar
@<TRIPOS>SUBSTRUCTURE
1   ****   1
@<TRIPOS>MOLECULE
4cox
40  42  1  0  0
SMALL
FORMAL_CHARGES
@<TRIPOS>ATOM
    1 C1         1.2888    -0.6705    -0.0003 C.ar       1 ****  0
    2 C2         1.2412     0.7035    -0.0001 C.ar       1 ****  0
    3 C3         0.0511     1.4170     0.0000 C.ar       1 ****  0
    4 C4        -1.1316     0.6827    -0.0001 C.ar       1 ****  0
    5 C5        -1.0940    -0.7151    -0.0003 C.ar       1 ****  0
    6 C6         0.1177    -1.4116    -0.0004 C.ar       1 ****  0
    7 C7        -2.1803     2.7668     0.0003 C.3        1 ****  0
    8 C8         2.5332     1.1772     0.0001 C.ar       1 ****  0
    9 C9         3.3327     0.0307     0.0000 C.ar       1 ****  0
   10 C10        2.9292    -2.5810    -0.0005 C.2        1 ****  0
   11 C11        4.3352    -3.2657    -0.0003 C.ar       1 ****  0
   12 C12        5.5369    -2.5765    -0.0001 C.ar       1 ****  0
   13 C13        6.7732    -3.1981     0.0001 C.ar       1 ****  0
   14 C14        6.8306    -4.5784    -0.0000 C.ar       1 ****  0
   15 C15        5.6454    -5.3070    -0.0003 C.ar       1 ****  0
   16 C16        4.4102    -4.6571    -0.0004 C.ar       1 ****  0
   17 C17        4.7624     0.1109     0.0003 C.3        1 ****  0
   18 C18        2.8905     2.7173     0.0005 C.3        1 ****  0
   19 C19        4.3470     3.3186     0.0005 C.2        1 ****  0.0000
   20 N1         2.5659    -1.0836    -0.0003 N.ar       1 ****  0
   21 O1        -2.3699     1.3440     0.0001 O.3        1 ****  0
   22 O2         1.9787    -3.3722    -0.0008 O.2        1 ****  0
   23 O3         4.4663     4.5468     0.0013 O.co2      1 ****  -0.50
   24 O4         5.4858     2.6028    -0.0005 O.co2      1 ****  -0.50
   25 Cl1        8.3656    -5.3571     0.0002 Cl         1 ****  0
   26 H1         0.0427     2.4870     0.0002 H          1 ****  0
   27 H2        -2.0128    -1.2635    -0.0004 H          1 ****  0
   28 H3         0.1405    -2.4813    -0.0006 H          1 ****  0
   29 H4        -1.6248     3.0451    -0.8727 H          1 ****  0
   30 H5        -1.6247     3.0448     0.8735 H          1 ****  0
   31 H6        -3.1246     3.2592     0.0004 H          1 ****  0
   32 H7         5.5075    -1.5069    -0.0001 H          1 ****  0
   33 H8         7.6721    -2.6178     0.0002 H          1 ****  0
   34 H9         5.6812    -6.3764    -0.0003 H          1 ****  0
   35 H10        3.5095    -5.2347    -0.0006 H          1 ****  0
   36 H11        4.9811     0.7376     0.8736 H          1 ****  0
   37 H12        4.9814     0.7379    -0.8727 H          1 ****  0
   38 H13        5.2241    -0.7578     0.0002 H          1 ****  0
   39 H14        2.3235     3.1997    -0.8751 H          1 ****  0
   40 H15        2.3248     3.1991     0.8736 H          1 ****  0
@<TRIPOS>BOND
    1     1     2 ar
    2     1     6 ar
    3     1    20 ar
    4     2     3 ar
    5     2     8 ar
    6     3     4 ar
    7     3    26 1
    8     4     5 ar
    9     4    21 1
   10     5     6 ar
   11     5    27 1
   12     6    28 1
   13     7    21 1
   14     7    29 1
   15     7    30 1
   16     7    31 1
   17     8     9 ar
   18     8    18 1
   19     9    17 1
   20     9    20 ar
   21    10    11 1
   22    10    20 am
   23    10    22 2
   24    11    12 ar
   25    11    16 ar
   26    12    13 ar
   27    12    32 1
   28    13    14 ar
   29    13    33 1
   30    14    15 ar
   31    14    25 1
   32    15    16 ar
   33    15    34 1
   34    16    35 1
   35    17    36 1
   36    17    37 1
   37    17    38 1
   38    18    19 1
   39    18    39 1
   40    18    40 1
   41    19    23 ar
   42    19    24 ar
@<TRIPOS>SUBSTRUCTURE
1   ****   1
@<TRIPOS>MOLECULE
4cts
11  10  1  0  0
SMALL
FORMAL_CHARGES
@<TRIPOS>ATOM
    1 C1         1.3533     0.7653    -0.0000 C.2        1 ****  0.0000
    2 O1         0.2439     0.2201    -0.0002 O.co2      1 ****  -0.50
    3 O2         1.4325     2.1211     0.0002 O.co2      1 ****  -0.50
    4 C2         2.6010    -0.0883    -0.0000 C.3        1 ****  0
    5 C3         3.8644     0.7402    -0.0001 C.2        1 ****  0
    6 O3         3.8158     1.9754    -0.0002 O.2        1 ****  0
    7 C4         5.1625     0.0692    -0.0001 C.2        1 ****  0.0000
    8 O4         6.2037     0.7348    -0.0001 O.co2      1 ****  -0.50
    9 O5         5.2229    -1.2878     0.0000 O.co2      1 ****  -0.50
   10 H1         2.5952    -0.7331     0.8911 H          1 ****  0
   11 H2         2.5959    -0.7338    -0.8907 H          1 ****  0
@<TRIPOS>BOND
    1     1     2 ar
    2     1     3 ar
    3     1     4 1
    4     4     5 1
    5     4    10 1
    6     4    11 1
    7     5     6 2
    8     5     7 1
    9     7     8 ar
   10     7     9 ar
@<TRIPOS>SUBSTRUCTURE
1   ****   1
@<TRIPOS>MOLECULE
4dfr
54  56  1  0  0
SMALL
FORMAL_CHARGES
@<TRIPOS>ATOM
    1 N1         1.1523    -0.6741    -0.0003 N.ar       1 ****  1
    2 C1        -0.0073    -1.3246    -0.0003 C.ar       1 ****  0
    3 N2        -0.0092    -2.7532    -0.0005 N.pl3      1 ****  0
    4 N3        -1.1649    -0.6699    -0.0002 N.ar       1 ****  0
    5 C2        -1.1968     0.6564    -0.0000 C.ar       1 ****  0
    6 N4        -2.4457     1.3496     0.0001 N.pl3      1 ****  0
    7 C3        -0.0033     1.3615     0.0000 C.ar       1 ****  0
    8 N5         0.0073     2.6875     0.0002 N.ar       1 ****  0
    9 C4         1.1658     3.3346     0.0002 C.ar       1 ****  0
   10 C5         2.3606     2.6235     0.0001 C.ar       1 ****  0
   11 N6         2.3450     1.2967    -0.0001 N.ar       1 ****  0
   12 C6         1.1865     0.6516    -0.0001 C.ar       1 ****  0
   13 C7         1.1868     4.8442    -0.0035 C.3        1 ****  0
   14 N7        -0.1167     5.4387    -0.3878 N.pl3      1 ****  0
   15 C8        -0.8448     4.9784    -1.5872 C.3        1 ****  0
   16 C9        -1.2887     9.0559     1.4265 C.ar       1 ****  0
   17 C10       -0.1459     8.3975     1.8649 C.ar       1 ****  0
   18 C11        0.2399     7.2035     1.2675 C.ar       1 ****  0
   19 C12       -0.5172     6.6687     0.2320 C.ar       1 ****  0
   20 C13       -1.6600     7.3272    -0.2064 C.ar       1 ****  0
   21 C14       -2.0458     8.5211     0.3910 C.ar       1 ****  0
   22 C15       -1.6954    10.3138     2.0563 C.2        1 ****  0
   23 O1        -2.7068    10.8978     1.6527 O.2        1 ****  0
   24 N8        -0.9469    10.8641     3.1125 N.am       1 ****  0
   25 C16       -1.3275    12.1518     3.6329 C.3        1 ****  0
   26 C17       -1.1373    13.1718     2.5533 C.2        1 ****  0.0000
   27 O2        -0.0082    13.3798     2.0952 O.co2      1 ****  -0.50
   28 O3        -2.2041    13.8551     2.0693 O.co2      1 ****  -0.50
   29 C18       -0.4361    12.5421     4.8332 C.3        1 ****  0
   30 C19       -0.9150    13.9231     5.3479 C.3        1 ****  0
   31 C20       -0.0669    14.4096     6.4929 C.2        1 ****  0.0000
   32 O4        -0.3556    15.4686     7.0635 O.co2      1 ****  -0.50
   33 O5         1.0184    13.6999     6.8931 O.co2      1 ****  -0.50
   34 H1         2.0343    -1.2061    -0.0004 H          1 ****  0
   35 H2         0.8781    -3.2763    -0.0006 H          1 ****  0
   36 H3        -0.9045    -3.2624    -0.0005 H          1 ****  0
   37 H4        -3.3262     0.8153     0.0000 H          1 ****  0
   38 H5        -2.4665     2.3794     0.0002 H          1 ****  0
   39 H6         3.3201     3.1615     0.0000 H          1 ****  0
   40 H7         1.9580     5.1907    -0.7071 H          1 ****  0
   41 H8         1.4593     5.2009     1.0008 H          1 ****  0
   42 H9        -0.9609     3.8952    -1.4345 H          1 ****  0
   43 H10       -0.1227     5.1041    -2.4073 H          1 ****  0
   44 H11       -1.8004     5.4900    -1.7747 H          1 ****  0
   45 H12        0.4530     8.8213     2.6845 H          1 ****  0
   46 H13        1.1442     6.6820     1.6140 H          1 ****  0
   47 H14       -2.2589     6.9034    -1.0260 H          1 ****  0
   48 H15       -2.9502     9.0427     0.0445 H          1 ****  0
   49 H16       -0.1420    10.3559     3.5060 H          1 ****  0
   50 H17       -2.3757    12.1089     3.9637 H          1 ****  0
   51 H18       -0.5404    11.7929     5.6318 H          1 ****  0
   52 H19        0.6131    12.6112     4.5102 H          1 ****  0
   53 H20       -1.9600    13.8434     5.6819 H          1 ****  0
   54 H21       -0.8648    14.6528     4.5264 H          1 ****  0
@<TRIPOS>BOND
    1     1     2 ar
    2     1    12 ar
    3     1    34 1
    4     2     3 1
    5     2     4 ar
    6     3    35 1
    7     3    36 1
    8     4     5 ar
    9     5     6 1
   10     5     7 ar
   11     6    37 1
   12     6    38 1
   13     7     8 ar
   14     7    12 ar
   15     8     9 ar
   16     9    10 ar
   17     9    13 1
   18    10    11 ar
   19    10    39 1
   20    11    12 ar
   21    13    14 1
   22    13    40 1
   23    13    41 1
   24    14    15 1
   25    14    19 1
   26    15    42 1
   27    15    43 1
   28    15    44 1
   29    16    17 ar
   30    16    21 ar
   31    16    22 1
   32    17    18 ar
   33    17    45 1
   34    18    19 ar
   35    18    46 1
   36    19    20 ar
   37    20    21 ar
   38    20    47 1
   39    21    48 1
   40    22    23 2
   41    22    24 am
   42    24    49 1
   43    25    24 1
   44    25    26 1
   45    25    29 1
   46    25    50 1
   47    26    27 ar
   48    26    28 ar
   49    29    30 1
   50    29    51 1
   51    29    52 1
   52    30    31 1
   53    30    53 1
   54    30    54 1
   55    31    32 ar
   56    31    33 ar
@<TRIPOS>SUBSTRUCTURE
1   ****   1
@<TRIPOS>MOLECULE
4est
73  74  1  0  0
SMALL
FORMAL_CHARGES
@<TRIPOS>ATOM
    1 C1         1.7828    -5.6925    -0.8279 C.2        1 ****  0
    2 O1         2.7288    -6.4757    -0.9710 O.2        1 ****  0
    3 C2         0.3964    -6.1220    -1.2326 C.3        1 ****  0
    4 N1         2.0224    -4.4064    -0.3047 N.am       1 ****  0
    5 C3         0.9479    -3.4824    -0.0310 C.3        1 ****  0
    6 C4         1.5262    -2.0818    -0.0232 C.2        1 ****  0
    7 O2         2.7509    -1.9381    -0.0238 O.2        1 ****  0
    8 C5         0.3763    -3.8020     1.3778 C.3        1 ****  0
    9 N2         0.6986    -0.9384    -0.0219 N.am       1 ****  0
   10 C6         1.2194     0.3905     0.1322 C.3        1 ****  0
   11 C7         1.4431     0.6094     1.6023 C.2        1 ****  0
   12 O3         2.1058    -0.2027     2.2572 O.2        1 ****  0
   13 C8         0.0019     1.2210    -0.3150 C.3        1 ****  0
   14 C9        -1.1534     0.4117     0.2810 C.3        1 ****  0
   15 C10       -0.7363    -1.0242    -0.1039 C.3        1 ****  0
   16 N3         0.9432     1.7593     2.2129 N.am       1 ****  0
   17 C11        1.3060     2.0803     3.5609 C.3        1 ****  0
   18 C12        0.0068     2.2572     4.4410 C.3        1 ****  0
   19 O4        -0.8281     3.3006     3.9338 O.3        1 ****  0
   20 C13        2.2402     3.3313     3.5208 C.3        1 ****  0
   21 C14        1.5614     4.5150     2.7991 C.3        1 ****  0
   22 C15        3.5385     2.9840     2.7711 C.3        1 ****  0
   23 C16        0.3680     2.5530     5.9315 C.3        1 ****  0
   24 F1         1.0552     3.7403     6.0602 F          1 ****  0
   25 F2         1.1468     1.5269     6.4220 F          1 ****  0
   26 C17       -0.8738     2.6671     6.7652 C.2        1 ****  0
   27 O5        -1.9850     2.4245     6.2812 O.2        1 ****  0
   28 N4        -0.7606     3.1196     8.0802 N.am       1 ****  0
   29 C18       -1.9227     3.3748     8.8758 C.3        1 ****  0
   30 C19       -1.4666     3.9071    10.2498 C.3        1 ****  0
   31 C20       -2.6580     4.2507    11.0988 C.ar       1 ****  0
   32 C21       -2.4668     4.7164    12.3952 C.ar       1 ****  0
   33 C22       -3.5625     5.0510    13.1809 C.ar       1 ****  0
   34 C23       -4.8494     4.9203    12.6710 C.ar       1 ****  0
   35 C24       -5.0400     4.4551    11.3759 C.ar       1 ****  0
   36 C25       -3.9432     4.1202    10.5894 C.ar       1 ****  0
   37 O6        -0.7238     1.0287     4.3914 O.3        1 ****  0
   38 H1         0.1913    -7.0382    -0.6594 H          1 ****  0
   39 H2         0.4712    -6.4016    -2.2938 H          1 ****  0
   40 H3        -0.3638    -5.3458    -1.0605 H          1 ****  0
   41 H4         2.9920    -4.1174    -0.1120 H          1 ****  0
   42 H5         0.1538    -3.5645    -0.7877 H          1 ****  0
   43 H6         1.1619    -3.6844     2.1387 H          1 ****  0
   44 H7        -0.0117    -4.8310     1.4023 H          1 ****  0
   45 H8        -0.4445    -3.1039     1.5989 H          1 ****  0
   46 H9         2.1520     0.6140    -0.4066 H          1 ****  0
   47 H10        0.0374     2.2254     0.1322 H          1 ****  0
   48 H11       -0.0690     1.2393    -1.4126 H          1 ****  0
   49 H12       -2.1031     0.6787    -0.2055 H          1 ****  0
   50 H13       -1.1780     0.5239     1.3750 H          1 ****  0
   51 H14       -1.1248    -1.7437     0.6319 H          1 ****  0
   52 H15       -1.0525    -1.2498    -1.1331 H          1 ****  0
   53 H16        0.3094     2.3815     1.6914 H          1 ****  0
   54 H17        1.8694     1.2682     4.0436 H          1 ****  0
   55 H18       -1.0849     3.0768     3.0042 H          1 ****  0
   56 H19        2.4573     3.6217     4.5594 H          1 ****  0
   57 H20        0.6321     4.7665     3.3312 H          1 ****  0
   58 H21        1.3142     4.2072     1.7724 H          1 ****  0
   59 H22        2.2323     5.3866     2.7799 H          1 ****  0
   60 H23        3.2965     2.6746     1.7436 H          1 ****  0
   61 H24        4.0515     2.1604     3.2893 H          1 ****  0
   62 H25        4.1956     3.8657     2.7435 H          1 ****  0
   63 H26        0.1741     3.2724     8.4849 H          1 ****  0
   64 H27       -2.4906     2.4426     9.0122 H          1 ****  0
   65 H28       -2.5524     4.1279     8.3796 H          1 ****  0
   66 H29       -0.8673     3.1376    10.7584 H          1 ****  0
   67 H30       -0.8502     4.8069    10.1071 H          1 ****  0
   68 H31       -1.4485     4.8198    12.7982 H          1 ****  0
   69 H32       -3.4121     5.4194    14.2064 H          1 ****  0
   70 H33       -5.7169     5.1852    13.2932 H          1 ****  0
   71 H34       -6.0582     4.3517    10.9727 H          1 ****  0
   72 H35       -4.0937     3.7518     9.5639 H          1 ****  0
   73 H36       -0.1781     0.2890     4.7591 H          1 ****  0
@<TRIPOS>BOND
    1     1     2 2
    2     1     3 1
    3     1     4 am
    4     3    38 1
    5     3    39 1
    6     3    40 1
    7     4     5 1
    8     4    41 1
    9     5     6 1
   10     5     8 1
   11     5    42 1
   12     6     7 2
   13     6     9 am
   14     8    43 1
   15     8    44 1
   16     8    45 1
   17     9    10 1
   18     9    15 1
   19    10    11 1
   20    10    13 1
   21    10    46 1
   22    11    12 2
   23    11    16 am
   24    13    14 1
   25    13    47 1
   26    13    48 1
   27    14    15 1
   28    14    49 1
   29    14    50 1
   30    15    51 1
   31    15    52 1
   32    16    53 1
   33    17    16 1
   34    17    18 1
   35    17    20 1
   36    17    54 1
   37    18    19 1
   38    18    23 1
   39    18    37 1
   40    19    55 1
   41    20    21 1
   42    20    22 1
   43    20    56 1
   44    21    57 1
   45    21    58 1
   46    21    59 1
   47    22    60 1
   48    22    61 1
   49    22    62 1
   50    23    24 1
   51    23    25 1
   52    23    26 1
   53    26    27 2
   54    26    28 am
   55    28    29 1
   56    28    63 1
   57    29    30 1
   58    29    64 1
   59    29    65 1
   60    30    31 1
   61    30    66 1
   62    30    67 1
   63    31    32 ar
   64    31    36 ar
   65    32    33 ar
   66    32    68 1
   67    33    34 ar
   68    33    69 1
   69    34    35 ar
   70    34    70 1
   71    35    36 ar
   72    35    71 1
   73    36    72 1
   74    37    73 1
@<TRIPOS>SUBSTRUCTURE
1   ****   1
@<TRIPOS>MOLECULE
4fbp
35  37  1  0  0
SMALL
FORMAL_CHARGES
@<TRIPOS>ATOM
    1 P1         2.6250    -6.0113    -3.5284 P.3        1 ****  0
    2 O1         2.0443    -6.3899    -4.8770 O.2        1 ****  -1
    3 O2         3.0177    -7.2679    -2.7760 O.2        1 ****  -1
    4 O3         3.7404    -5.2177    -3.7132 O.2        1 ****  0
    5 O4         1.5655    -5.2328    -2.7108 O.3        1 ****  0
    6 C1         0.4091    -6.0539    -2.5370 C.3        1 ****  0
    7 C2        -0.6266    -5.3069    -1.6808 C.3        1 ****  0
    8 O5        -0.1235    -4.9725    -0.3483 O.3        1 ****  0
    9 C3        -0.5134    -3.9514    -1.3729 C.3        1 ****  0
   10 O6         0.0633    -3.1804    -2.5837 O.3        1 ****  0
   11 C4        -0.8420    -2.9618    -1.2827 C.3        1 ****  0
   12 O7        -2.2160    -2.1252    -1.1880 O.3        1 ****  0
   13 C5        -0.7258    -3.6929    -0.0009 C.3        1 ****  0
   14 N1         0.2380    -2.6340    -0.0004 N.ar       1 ****  0
   15 C6         1.5652    -2.7851    -0.0005 C.ar       1 ****  0
   16 N2         2.1448    -1.5760    -0.0004 N.ar       1 ****  0
   17 C7         1.1607    -0.6870    -0.0002 C.ar       1 ****  0
   18 C8         1.1916     0.6934    -0.0001 C.ar       1 ****  0
   19 N3         2.4226     1.4171    -0.0001 N.pl3      1 ****  0
   20 N4         0.0150     1.3170     0.0000 N.ar       1 ****  0
   21 C9        -1.1385     0.6361     0.0000 C.ar       1 ****  0
   22 N5        -1.1857    -0.6981    -0.0001 N.ar       1 ****  0
   23 C10       -0.0328    -1.3446    -0.0002 C.ar       1 ****  0
   24 H1        -0.0272    -6.2857    -3.5198 H          1 ****  0
   25 H2         0.6944    -6.9890    -2.0329 H          1 ****  0
   26 H3        -1.4683    -6.0115    -1.6094 H          1 ****  0
   27 H4         0.0542    -3.9081    -0.4316 H          1 ****  0
   28 H5         0.6693    -3.6541    -3.2070 H          1 ****  0
   29 H6         0.1053    -2.4393    -1.4815 H          1 ****  0
   30 H7        -2.8187    -2.0599    -1.9707 H          1 ****  0
   31 H8        -1.1477    -3.6898     1.0150 H          1 ****  0
   32 H9         2.0976    -3.7477    -0.0006 H          1 ****  0
   33 H10        3.3074     0.8899    -0.0002 H          1 ****  0
   34 H11        2.4296     2.4471     0.0000 H          1 ****  0
   35 H12       -2.0840     1.1982     0.0001 H          1 ****  0
@<TRIPOS>BOND
    1     1     2 1
    2     1     3 1
    3     1     4 2
    4     1     5 1
    5     5     6 1
    6     6    24 1
    7     6    25 1
    8     7     6 1
    9     7     8 1
   10     7     9 1
   11     7    26 1
   12     9    10 1
   13     9    11 1
   14     9    27 1
   15    10    28 1
   16    11    12 1
   17    11    13 1
   18    11    29 1
   19    12    30 1
   20    13     8 1
   21    13    14 1
   22    13    31 1
   23    14    15 ar
   24    14    23 ar
   25    15    16 ar
   26    15    32 1
   27    16    17 ar
   28    17    18 ar
   29    17    23 ar
   30    18    19 1
   31    18    20 ar
   32    19    33 1
   33    19    34 1
   34    20    21 ar
   35    21    22 ar
   36    21    35 1
   37    22    23 ar
@<TRIPOS>SUBSTRUCTURE
1   ****   1
@<TRIPOS>MOLECULE
4lbd
54  56  1  0  0
SMALL
FORMAL_CHARGES
@<TRIPOS>ATOM
    1 C1         7.4408     1.4993    -0.3866 C.ar       1 ****  0
    2 C2         8.6973     0.9196    -0.5168 C.ar       1 ****  0
    3 C3         8.8148    -0.4577    -0.6590 C.ar       1 ****  0
    4 C4         7.6768    -1.2554    -0.6711 C.ar       1 ****  0
    5 C5         6.4206    -0.6757    -0.5410 C.ar       1 ****  0
    6 C6         6.3012     0.7020    -0.3986 C.ar       1 ****  0
    7 C7        10.1384    -1.0692    -0.7961 C.2        1 ****  0.0000
    8 C8         1.2042    -0.6885     0.0130 C.ar       1 ****  0
    9 C9         1.2084     0.6998     0.0016 C.ar       1 ****  0
   10 C10        0.0075     1.3967    -0.0152 C.ar       1 ****  0
   11 C11       -1.1946     0.7018    -0.0237 C.ar       1 ****  0
   12 C12       -1.2029    -0.6886    -0.0148 C.ar       1 ****  0
   13 C13       -2.5301    -1.4033    -0.0109 C.3        1 ****  0
   14 C14       -2.3645    -2.8581    -0.4570 C.3        1 ****  0
   15 C15       -1.3054    -3.4894     0.4303 C.3        1 ****  0
   16 C16        0.0467    -2.8976     0.0135 C.3        1 ****  0
   17 C17        0.0026    -1.3878     0.0080 C.ar       1 ****  0
   18 C18        1.1430    -3.3801     0.9824 C.3        1 ****  0
   19 C19        0.3793    -3.3747    -1.4136 C.3        1 ****  0
   20 C20       -3.5134    -0.6851    -0.9546 C.3        1 ****  0
   21 C21       -3.0875    -1.3769     1.4254 C.3        1 ****  0
   22 C22        2.5300     1.4555     0.0040 C.3        1 ****  0
   23 C23        3.7992     0.6403    -0.2244 C.2        1 ****  0
   24 N1         5.0370     1.3324    -0.2523 N.am       1 ****  0
   25 F1         7.3266     2.8260    -0.2496 F          1 ****  0
   26 O1         2.4706     2.5739    -0.8863 O.3        1 ****  0
   27 O2         3.7591    -0.5881    -0.3448 O.2        1 ****  0
   28 O3        11.1512    -0.3601    -0.7854 O.co2      1 ****  -0.50
   29 O4        10.2542    -2.4157    -0.9352 O.co2      1 ****  -0.50
   30 H1         9.5982     1.5508    -0.5072 H          1 ****  0
   31 H2         7.7704    -2.3456    -0.7837 H          1 ****  0
   32 H3         5.5201    -1.3073    -0.5506 H          1 ****  0
   33 H4         2.1569    -1.2383     0.0260 H          1 ****  0
   34 H5         0.0085     2.4966    -0.0218 H          1 ****  0
   35 H6        -2.1457     1.2543    -0.0375 H          1 ****  0
   36 H7        -3.3173    -3.3944    -0.3365 H          1 ****  0
   37 H8        -2.0366    -2.8909    -1.5065 H          1 ****  0
   38 H9        -1.2953    -4.5793     0.2819 H          1 ****  0
   39 H10       -1.5086    -3.2458     1.4836 H          1 ****  0
   40 H11        1.1997    -4.4782     0.9544 H          1 ****  0
   41 H12        0.8994    -3.0526     2.0039 H          1 ****  0
   42 H13        2.1125    -2.9553     0.6829 H          1 ****  0
   43 H14       -0.3993    -3.0338    -2.1118 H          1 ****  0
   44 H15        0.4389    -4.4729    -1.4354 H          1 ****  0
   45 H16        1.3485    -2.9539    -1.7195 H          1 ****  0
   46 H17       -3.1025    -0.6810    -1.9750 H          1 ****  0
   47 H18       -3.6544     0.3514    -0.6142 H          1 ****  0
   48 H19       -4.4807    -1.2088    -0.9496 H          1 ****  0
   49 H20       -3.2320    -0.3375     1.7554 H          1 ****  0
   50 H21       -2.3950    -1.8902     2.1087 H          1 ****  0
   51 H22       -4.0572    -1.8958     1.4423 H          1 ****  0
   52 H23        2.6347     1.7911     1.0463 H          1 ****  0
   53 H24        5.0178     2.3582    -0.1606 H          1 ****  0
   54 H25        1.7431     3.1794    -0.5962 H          1 ****  0
@<TRIPOS>BOND
    1     1     2 ar
    2     1     6 ar
    3     1    25 1
    4     2     3 ar
    5     2    30 1
    6     3     4 ar
    7     3     7 1
    8     4     5 ar
    9     4    31 1
   10     5     6 ar
   11     5    32 1
   12     6    24 1
   13     7    28 ar
   14     7    29 ar
   15     8     9 ar
   16     8    17 ar
   17     8    33 1
   18     9    10 ar
   19     9    22 1
   20    10    11 ar
   21    10    34 1
   22    11    12 ar
   23    11    35 1
   24    12    13 1
   25    12    17 ar
   26    13    14 1
   27    13    20 1
   28    13    21 1
   29    14    15 1
   30    14    36 1
   31    14    37 1
   32    15    16 1
   33    15    38 1
   34    15    39 1
   35    16    17 1
   36    16    18 1
   37    16    19 1
   38    18    40 1
   39    18    41 1
   40    18    42 1
   41    19    43 1
   42    19    44 1
   43    19    45 1
   44    20    46 1
   45    20    47 1
   46    20    48 1
   47    21    49 1
   48    21    50 1
   49    21    51 1
   50    22    23 1
   51    22    26 1
   52    22    52 1
   53    23    24 am
   54    23    27 2
   55    24    53 1
   56    26    54 1
@<TRIPOS>SUBSTRUCTURE
1   ****   1
@<TRIPOS>MOLECULE
4phv
88  93  1  0  0
SMALL
FORMAL_CHARGES
@<TRIPOS>ATOM
    1 C1         2.6358    -0.5132     6.6140 C.3        1 ****  0
    2 C2         2.4431     0.7537     7.5074 C.3        1 ****  0
    3 C3         2.5145    -0.0808     5.1204 C.3        1 ****  0
    4 C4         2.6747    -1.2392     4.0729 C.3        1 ****  0
    5 C5         1.5850     0.8532     8.8592 C.3        1 ****  0
    6 C6         1.5477    -2.3233     4.1418 C.3        1 ****  0
    7 C7         2.6479    -0.6694     2.7134 C.2        1 ****  0
    8 C8         0.1161    -1.8049     3.9827 C.ar       1 ****  0
    9 C9         2.6714    -1.2133     0.1978 C.3        1 ****  0
   10 C10        2.4392     0.0412    -0.6336 C.3        1 ****  0
   11 C11        1.3131    -0.6644     0.0174 C.ar       1 ****  0
   12 C12        1.3385     0.7364    -0.0170 C.ar       1 ****  0
   13 C13        2.7501     1.2819     0.1022 C.3        1 ****  0
   14 C14        2.4759     1.5789     9.9245 C.2        1 ****  0
   15 C15        1.4787    -0.6346     9.4947 C.3        1 ****  0
   16 C16        0.0371    -0.1664     9.3098 C.ar       1 ****  0
   17 C17        0.1744     1.4545    -0.1370 C.ar       1 ****  0
   18 C18       -1.0303     0.7524    -0.2351 C.ar       1 ****  0
   19 C19       -1.0498    -0.6408    -0.2080 C.ar       1 ****  0
   20 C20        0.1376    -1.3643    -0.0720 C.ar       1 ****  0
   21 C21       -0.9855    -1.0883     9.4964 C.ar       1 ****  0
   22 C22       -2.3113    -0.7122     9.3202 C.ar       1 ****  0
   23 C23       -2.6226     0.5929     8.9598 C.ar       1 ****  0
   24 C24       -1.6057     1.5210     8.7771 C.ar       1 ****  0
   25 C25       -0.2815     1.1399     8.9502 C.ar       1 ****  0
   26 C26       -0.9326    -2.6678     4.2775 C.ar       1 ****  0
   27 C27       -2.2498    -2.2401     4.1632 C.ar       1 ****  0
   28 C28       -2.5271    -0.9441     3.7471 C.ar       1 ****  0
   29 C29       -1.4846    -0.0774     3.4460 C.ar       1 ****  0
   30 C30       -0.1697    -0.5080     3.5662 C.ar       1 ****  0
   31 C31        2.4394     4.7166    11.5586 C.3        1 ****  0
   32 C32        3.3393     3.5459    12.1394 C.3        1 ****  0
   33 C33        2.1788     2.8165    11.3722 C.3        1 ****  0
   34 C34        1.0428     2.9263    12.3008 C.ar       1 ****  0
   35 C35        1.0675     4.2445    11.9468 C.ar       1 ****  0
   36 C36       -0.1619     2.2501    12.5000 C.ar       1 ****  0
   37 C37       -1.3418     2.9775    12.3948 C.ar       1 ****  0
   38 C38       -1.3152     4.3370    12.0760 C.ar       1 ****  0
   39 C39       -0.1106     4.9815    11.8155 C.ar       1 ****  0
   40 O1         1.6539    -1.4930     6.9586 O.3        1 ****  0
   41 O2         2.3443     0.5154     2.5894 O.2        1 ****  0
   42 O3         3.3921    -0.0121    -1.8011 O.3        1 ****  0
   43 O4         2.3435     2.7172     9.4661 O.2        1 ****  0
   44 O5         3.8091     3.9025    13.4491 O.3        1 ****  0
   45 N1         2.8745    -1.5434     1.6163 N.am       1 ****  0
   46 N2         2.5033     1.3203    11.2930 N.am       1 ****  0
   47 H1         3.6364    -0.9258     6.8008 H          1 ****  0
   48 H2         3.1922     1.4862     7.2549 H          1 ****  0
   49 H3         1.4724     1.1770     7.3224 H          1 ****  0
   50 H4         1.5400     0.4018     4.9688 H          1 ****  0
   51 H5         3.2639     0.6901     4.9121 H          1 ****  0
   52 H6         3.6424    -1.7387     4.2214 H          1 ****  0
   53 H7         0.6026     1.3190     8.6937 H          1 ****  0
   54 H8         1.6248    -2.8555     5.0981 H          1 ****  0
   55 H9         1.7365    -3.0815     3.3677 H          1 ****  0
   56 H10        2.8607    -2.1299    -0.3804 H          1 ****  0
   57 H11        1.3739     0.0818    -0.9013 H          1 ****  0
   58 H12        2.8934     2.0392    -0.5708 H          1 ****  0
   59 H13        2.9709     1.4804     1.0844 H          1 ****  0
   60 H14        1.6169    -1.5764     8.9520 H          1 ****  0
   61 H15        1.6411    -0.8671    10.5502 H          1 ****  0
   62 H16        0.1890     2.5243    -0.1550 H          1 ****  0
   63 H17       -1.9494     1.2916    -0.3324 H          1 ****  0
   64 H18       -1.9814    -1.1604    -0.2918 H          1 ****  0
   65 H19        0.1298    -2.4338    -0.0387 H          1 ****  0
   66 H20       -0.7506    -2.0937     9.7773 H          1 ****  0
   67 H21       -3.0935    -1.4284     9.4622 H          1 ****  0
   68 H22       -3.6436     0.8824     8.8233 H          1 ****  0
   69 H23       -1.8421     2.5281     8.5035 H          1 ****  0
   70 H24        0.5001     1.8563     8.8059 H          1 ****  0
   71 H25       -0.7244    -3.6682     4.5947 H          1 ****  0
   72 H26       -3.0512    -2.9097     4.3959 H          1 ****  0
   73 H27       -3.5413    -0.6145     3.6587 H          1 ****  0
   74 H28       -1.6941     0.9205     3.1218 H          1 ****  0
   75 H29        0.6311     0.1635     3.3366 H          1 ****  0
   76 H30        2.6615     5.6071    12.0449 H          1 ****  0
   77 H31        2.5258     4.7495    10.5270 H          1 ****  0
   78 H32        4.2249     3.3311    11.5271 H          1 ****  0
   79 H33        1.9616     3.3314    10.4300 H          1 ****  0
   80 H34       -0.1768     1.2045    12.7266 H          1 ****  0
   81 H35       -2.2802     2.4907    12.5598 H          1 ****  0
   82 H36       -2.2311     4.8884    12.0318 H          1 ****  0
   83 H37       -0.0876     6.0106    11.5234 H          1 ****  0
   84 H38        1.8705    -2.3503     6.5601 H          1 ****  0
   85 H39        2.4512     0.0279    -2.0839 H          1 ****  0
   86 H40        3.0735     4.0167    14.0679 H          1 ****  0
   87 H41        3.1251    -2.4818     1.8287 H          1 ****  0
   88 H42        2.6420     0.3823    11.5888 H          1 ****  0
@<TRIPOS>BOND
    1     1     2 1
    2     1     3 1
    3     1    40 1
    4     1    47 1
    5     2     5 1
    6     2    48 1
    7     2    49 1
    8     3     4 1
    9     3    50 1
   10     3    51 1
   11     4     6 1
   12     4     7 1
   13     4    52 1
   14     5    14 1
   15     5    15 1
   16     5    53 1
   17     6     8 1
   18     6    54 1
   19     6    55 1
   20     7    41 2
   21     7    45 am
   22     8    26 ar
   23     8    30 ar
   24     9    10 1
   25     9    11 1
   26     9    45 1
   27     9    56 1
   28    10    13 1
   29    10    42 1
   30    10    57 1
   31    11    12 ar
   32    11    20 ar
   33    12    13 1
   34    12    17 ar
   35    13    58 1
   36    13    59 1
   37    14    43 2
   38    14    46 am
   39    15    16 1
   40    15    60 1
   41    15    61 1
   42    16    21 ar
   43    16    25 ar
   44    17    18 ar
   45    17    62 1
   46    18    19 ar
   47    18    63 1
   48    19    20 ar
   49    19    64 1
   50    20    65 1
   51    21    22 ar
   52    21    66 1
   53    22    23 ar
   54    22    67 1
   55    23    24 ar
   56    23    68 1
   57    24    25 ar
   58    24    69 1
   59    25    70 1
   60    26    27 ar
   61    26    71 1
   62    27    28 ar
   63    27    72 1
   64    28    29 ar
   65    28    73 1
   66    29    30 ar
   67    29    74 1
   68    30    75 1
   69    31    32 1
   70    31    35 1
   71    31    76 1
   72    31    77 1
   73    32    33 1
   74    32    44 1
   75    32    78 1
   76    33    34 1
   77    33    46 1
   78    33    79 1
   79    34    35 ar
   80    34    36 ar
   81    35    39 ar
   82    36    37 ar
   83    36    80 1
   84    37    38 ar
   85    37    81 1
   86    38    39 ar
   87    38    82 1
   88    39    83 1
   89    40    84 1
   90    42    85 1
   91    44    86 1
   92    45    87 1
   93    46    88 1
@<TRIPOS>SUBSTRUCTURE
1   ****   1
@<TRIPOS>MOLECULE
5abp
24  24  1  0  0
SMALL
FORMAL_CHARGES
@<TRIPOS>ATOM
    1 C1         1.2281    -0.7247    -0.8765 C.3        1 ****  0
    2 C2         1.3136     0.7457    -0.3401 C.3        1 ****  0
    3 C3         0.0874     1.5042     0.1751 C.3        1 ****  0
    4 C4        -1.1849     0.7495    -0.2706 C.3        1 ****  0
    5 C5        -0.3085    -0.2051     0.6964 C.3        1 ****  0
    6 C6        -1.3536    -0.8780     1.8117 C.3        1 ****  0
    7 O1         2.3976    -1.4327    -0.2805 O.3        1 ****  0
    8 O2         2.5000     1.4179     0.0889 O.3        1 ****  0
    9 O3         0.0789     2.8266    -0.3588 O.3        1 ****  0
   10 O4        -1.2402     0.7174    -1.7097 O.3        1 ****  0
   11 O5         0.0517    -1.3683    -0.2240 O.3        1 ****  0
   12 O6        -0.3651    -0.2629     2.6438 O.3        1 ****  0
   13 H1         1.1825    -0.7490    -1.9653 H          1 ****  0
   14 H2         1.2892     0.7141    -1.4354 H          1 ****  0
   15 H3         0.1313     1.5573     1.2528 H          1 ****  0
   16 H4        -2.0816     1.2657     0.0990 H          1 ****  0
   17 H5         0.5518     0.3087     1.1475 H          1 ****  0
   18 H6        -1.3961    -1.9501     2.0587 H          1 ****  0
   19 H7        -2.3435    -0.4807     2.0960 H          1 ****  0
   20 H8         3.2328    -1.0048     0.0240 H          1 ****  0
   21 H9         3.2940     0.9436    -0.2532 H          1 ****  0
   22 H10        0.0517     2.7808    -1.3466 H          1 ****  0
   23 H11       -0.4843     0.2077    -2.0785 H          1 ****  0
   24 H12       -0.5385     0.6990     2.7151 H          1 ****  0
@<TRIPOS>BOND
    1     1     2 1
    2     1     7 1
    3     1    11 1
    4     1    13 1
    5     2     3 1
    6     2     8 1
    7     2    14 1
    8     3     4 1
    9     3     9 1
   10     3    15 1
   11     4     5 1
   12     4    10 1
   13     4    16 1
   14     5     6 1
   15     5    11 1
   16     5    17 1
   17     6    12 1
   18     6    18 1
   19     6    19 1
   20     7    20 1
   21     8    21 1
   22     9    22 1
   23    10    23 1
   24    12    24 1
@<TRIPOS>SUBSTRUCTURE
1   ****   1
@<TRIPOS>MOLECULE
5abp
24  24  1  0  0
SMALL
FORMAL_CHARGES
@<TRIPOS>ATOM
    1 C1         0.4911    -0.1729     0.6873 C.3        1 ****  0
    2 C2         1.3106     0.7292    -0.3178 C.3        1 ****  0
    3 C3         0.0775     1.4843     0.2343 C.3        1 ****  0
    4 C4        -1.2031     0.7439    -0.2627 C.3        1 ****  0
    5 C5        -0.4059    -0.2166     0.7644 C.3        1 ****  0
    6 C6        -1.6064    -0.8922     1.7662 C.3        1 ****  0
    7 O1         1.5943    -0.7286     1.6069 O.3        1 ****  0
    8 O2         2.5170     1.3786     0.0800 O.3        1 ****  0
    9 O3         0.0780     2.8177    -0.2723 O.3        1 ****  0
   10 O4        -1.2137     0.7306    -1.7035 O.3        1 ****  0
   11 O5         0.0388    -1.3856    -0.1680 O.3        1 ****  0
   12 O6        -0.8577    -0.1677     2.7243 O.3        1 ****  0
   13 H1        -0.3295     0.3760     1.1695 H          1 ****  0
   14 H2         1.2490     0.7194    -1.4090 H          1 ****  0
   15 H3         0.1112     1.5090     1.3202 H          1 ****  0
   16 H4        -2.1088     1.2629     0.0821 H          1 ****  0
   17 H5         0.4120     0.2936     1.2930 H          1 ****  0
   18 H6        -1.5566    -1.9659     2.0318 H          1 ****  0
   19 H7        -2.6772    -0.6303     1.8959 H          1 ****  0
   20 H8         1.0424    -0.1123     2.0711 H          1 ****  0
   21 H9         3.2903     0.8824    -0.2846 H          1 ****  0
   22 H10        0.0579     2.7939    -1.2608 H          1 ****  0
   23 H11       -0.4667     0.2003    -2.0579 H          1 ****  0
   24 H12       -1.0487     0.7926     2.6418 H          1 ****  0
@<TRIPOS>BOND
    1     1     2 1
    2     1     7 1
    3     1    11 1
    4     1    13 1
    5     2     3 1
    6     2     8 1
    7     2    14 1
    8     3     4 1
    9     3     9 1
   10     3    15 1
   11     4     5 1
   12     4    10 1
   13     4    16 1
   14     5     6 1
   15     5    11 1
   16     5    17 1
   17     6    12 1
   18     6    18 1
   19     6    19 1
   20     7    20 1
   21     8    21 1
   22     9    22 1
   23    10    23 1
   24    12    24 1
@<TRIPOS>SUBSTRUCTURE
1   ****   1
@<TRIPOS>MOLECULE
5cpp
25  27  1  0  0
SMALL
FORMAL_CHARGES
@<TRIPOS>ATOM
    1 C1        -0.0473    -0.4806    -0.0084 C.3        1 ****  0
    2 C2         0.9953     0.5298    -0.3346 C.2        1 ****  0
    3 C3        -0.4416     0.1930    -0.1491 C.3        1 ****  0
    4 C4        -1.1719     0.5110    -1.4846 C.3        1 ****  0
    5 C5        -0.7003    -0.4641    -0.3383 C.3        1 ****  0
    6 C6        -1.9929    -1.0918     0.2797 C.3        1 ****  0
    7 C7        -0.6532    -0.2948     0.3407 C.3        1 ****  0
    8 C8         0.2687    -1.0319     1.3946 C.3        1 ****  0
    9 C9         0.0900    -1.6410    -1.0324 C.3        1 ****  0
   10 C10       -0.9960     1.1290     0.9412 C.3        1 ****  0
   11 O1         2.0650     1.1444    -0.3948 O.2        1 ****  0
   12 H1        -1.0572    -0.0453    -0.0352 H          1 ****  0
   13 H2        -0.5782    -0.8600     0.1380 H          1 ****  0
   14 H3        -0.6956     0.5868    -2.4732 H          1 ****  0
   15 H4        -2.1695     0.9730    -1.5238 H          1 ****  0
   16 H5        -0.0899     0.0530     0.4167 H          1 ****  0
   17 H6        -2.9877    -0.6244     0.2347 H          1 ****  0
   18 H7        -2.0944    -2.1515     0.5567 H          1 ****  0
   19 H8        -0.1731    -0.2214    -0.6463 H          1 ****  0
   20 H9         0.8776    -0.5243     2.1572 H          1 ****  0
   21 H10        0.1586    -2.0934     1.6613 H          1 ****  0
   22 H11       -0.0167    -2.6997    -0.7536 H          1 ****  0
   23 H12        0.5707    -1.5702    -2.0193 H          1 ****  0
   24 H13       -0.3923     1.6489     1.6996 H          1 ****  0
   25 H14       -1.9949     1.5869     0.8914 H          1 ****  0
@<TRIPOS>BOND
    1     1     2 1
    2     1     8 1
    3     1     9 1
    4     1    12 1
    5     2    11 2
    6     3     2 1
    7     3     4 1
    8     3    10 1
    9     3    13 1
   10     4    14 1
   11     4    15 1
   12     5     4 1
   13     5     6 1
   14     5     9 1
   15     5    16 1
   16     6    17 1
   17     6    18 1
   18     7     6 1
   19     7     8 1
   20     7    10 1
   21     7    19 1
   22     8    20 1
   23     8    21 1
   24     9    22 1
   25     9    23 1
   26    10    24 1
   27    10    25 1
@<TRIPOS>SUBSTRUCTURE
1   ****   1
@<TRIPOS>MOLECULE
5er1
86  86  1  0  0
SMALL
FORMAL_CHARGES
@<TRIPOS>ATOM
    1 C1        20.0162    -1.9154    -1.1212 C.3        1 ****  0
    2 C2        18.9009    -0.1636     0.2989 C.3        1 ****  0
    3 C3        18.7678    -1.0245    -0.9721 C.3        1 ****  0
    4 C4        17.4989    -1.9078    -0.8838 C.3        1 ****  0
    5 N1        16.1870    -0.1099    -1.9207 N.4        1 ****  1
    6 C5        16.1795    -1.5894    -1.6900 C.3        1 ****  0
    7 C6        14.9434    -1.1927    -1.5851 C.3        1 ****  0
    8 O1        14.8813    -2.6335    -1.9271 O.3        1 ****  0
    9 C7        13.7358    -0.9281    -0.6227 C.3        1 ****  0
   10 N2        12.4447    -1.6779    -0.6949 N.3        1 ****  0
   11 C8        11.2221    -0.7712    -0.7093 C.3        1 ****  0
   12 C9         9.9731    -1.5973    -0.4485 C.2        1 ****  0
   13 O2        10.0812    -2.7985    -0.1766 O.2        1 ****  0
   14 C10       10.9950    -0.0211    -2.0748 C.3        1 ****  0
   15 C11       10.8881    -1.0464    -3.2208 C.3        1 ****  0
   16 C12       12.0505     1.0585    -2.4208 C.3        1 ****  0
   17 N3         8.6811    -0.9869    -0.5301 N.am       1 ****  0
   18 C13        7.4615    -1.7528    -0.2911 C.3        1 ****  0
   19 C14        6.2242    -0.8466    -0.4085 C.2        1 ****  0
   20 O3         6.3667     0.3468    -0.6972 O.2        1 ****  0
   21 C15        6.6094    -1.8341     1.0644 C.3        1 ****  0
   22 C16        7.5586    -1.3585     2.2033 C.3        1 ****  0
   23 C17        6.3374    -3.3935     1.3345 C.3        1 ****  0
   24 C18        7.6667    -2.0289     3.5850 C.3        1 ****  0
   25 N4         4.9230    -1.3672    -0.2070 N.am       1 ****  0
   26 C19        3.6883    -1.3892    -1.0036 C.3        1 ****  0
   27 C20        3.6152    -0.0302    -1.7136 C.2        1 ****  0
   28 O4         3.6682     1.1844    -1.9377 O.2        1 ****  0
   29 C21        2.5192    -1.4549    -0.0028 C.3        1 ****  0
   30 C22        1.2084    -0.6974    -0.0001 C.ar       1 ****  0
   31 C23        1.2089     0.6915     0.0001 C.ar       1 ****  0
   32 C24        0.0043    -1.3930    -0.0003 C.ar       1 ****  0
   33 C25        0.0048     1.3871     0.0001 C.ar       1 ****  0
   34 C26       -1.1987    -0.6980    -0.0003 C.ar       1 ****  0
   35 C27       -1.1983     0.6923    -0.0001 C.ar       1 ****  0
   36 C28        3.3051    -0.2085    -3.9899 C.3        1 ****  0
   37 O5         3.4119    -0.9252    -2.7581 O.3        1 ****  0
   38 H1        20.1073    -2.5713    -0.2429 H          1 ****  0
   39 H2        20.9125    -1.2826    -1.2002 H          1 ****  0
   40 H3        19.9221    -2.5304    -2.0284 H          1 ****  0
   41 H4        19.7961     0.4710     0.2214 H          1 ****  0
   42 H5        18.9909    -0.8178     1.1787 H          1 ****  0
   43 H6        18.0101     0.4728     0.4063 H          1 ****  0
   44 H7        18.6815    -0.3658    -1.8488 H          1 ****  0
   45 H8        17.5676    -2.5627    -0.0027 H          1 ****  0
   46 H9        17.4171    -2.5235    -1.7917 H          1 ****  0
   47 H10       16.1239    -0.6649    -2.7862 H          1 ****  0
   48 H11       17.0312     0.4794    -1.9501 H          1 ****  0
   49 H12       15.3550     0.4921    -1.8417 H          1 ****  0
   50 H13       16.1101    -2.1709    -2.6211 H          1 ****  0
   51 H14       14.9251    -0.5131    -2.4498 H          1 ****  0
   52 H15       15.6717    -3.2245    -2.0046 H          1 ****  0
   53 H16       13.7790    -0.3781     0.3290 H          1 ****  0
   54 H17       13.7741    -0.1992    -1.4456 H          1 ****  0
   55 H18       12.4417    -2.2556    -1.5477 H          1 ****  0
   56 H19       11.4070    -0.0180     0.0708 H          1 ****  0
   57 H20       10.0528     0.5328    -1.9507 H          1 ****  0
   58 H21       10.0415    -1.7220    -3.0289 H          1 ****  0
   59 H22       11.8175    -1.6323    -3.2749 H          1 ****  0
   60 H23       10.7295    -0.5204    -4.1738 H          1 ****  0
   61 H24       13.0291     0.5563    -2.4302 H          1 ****  0
   62 H25       12.0485     1.7831    -1.5932 H          1 ****  0
   63 H26       11.8428     1.5491    -3.3832 H          1 ****  0
   64 H27        8.6103     0.0140    -0.7625 H          1 ****  0
   65 H28        7.3756    -2.5380    -1.0566 H          1 ****  0
   66 H29        5.6910    -1.2300     1.0243 H          1 ****  0
   67 H30        8.4266    -0.7011     2.0469 H          1 ****  0
   68 H31        6.6356    -0.7617     2.1579 H          1 ****  0
   69 H32        6.3500    -4.1606     0.5462 H          1 ****  0
   70 H33        5.4059    -2.8143     1.2521 H          1 ****  0
   71 H34        6.4055    -3.8655     2.3258 H          1 ****  0
   72 H35        8.5900    -2.6250     3.6315 H          1 ****  0
   73 H36        6.7990    -2.6864     3.7419 H          1 ****  0
   74 H37        7.6886    -1.2572     4.3686 H          1 ****  0
   75 H38        4.8159    -2.3670     0.0165 H          1 ****  0
   76 H39        3.6389    -2.2373    -1.7024 H          1 ****  0
   77 H40        2.4706    -2.2505    -0.7608 H          1 ****  0
   78 H41        2.6597    -1.9290     0.9798 H          1 ****  0
   79 H42        2.1617     1.2413     0.0003 H          1 ****  0
   80 H43        0.0042    -2.4930    -0.0005 H          1 ****  0
   81 H44        0.0048     2.4871     0.0003 H          1 ****  0
   82 H45       -2.1515    -1.2478    -0.0004 H          1 ****  0
   83 H46       -2.1508     1.2424    -0.0001 H          1 ****  0
   84 H47        4.2323     0.3563    -4.1670 H          1 ****  0
   85 H48        2.4567     0.4894    -3.9356 H          1 ****  0
   86 H49        3.1444    -0.9172    -4.8157 H          1 ****  0
@<TRIPOS>BOND
    1     1     3 1
    2     1    38 1
    3     1    39 1
    4     1    40 1
    5     2     3 1
    6     2    41 1
    7     2    42 1
    8     2    43 1
    9     3     4 1
   10     3    44 1
   11     4     6 1
   12     4    45 1
   13     4    46 1
   14     5    47 1
   15     5    48 1
   16     5    49 1
   17     6     5 1
   18     6     7 1
   19     6    50 1
   20     7     8 1
   21     7     9 1
   22     7    51 1
   23     8    52 1
   24     9    10 1
   25     9    53 1
   26     9    54 1
   27    10    55 1
   28    11    10 1
   29    11    12 1
   30    11    14 1
   31    11    56 1
   32    12    13 2
   33    12    17 am
   34    14    15 1
   35    14    16 1
   36    14    57 1
   37    15    58 1
   38    15    59 1
   39    15    60 1
   40    16    61 1
   41    16    62 1
   42    16    63 1
   43    17    64 1
   44    18    17 1
   45    18    19 1
   46    18    21 1
   47    18    65 1
   48    19    20 2
   49    19    25 am
   50    21    22 1
   51    21    23 1
   52    21    66 1
   53    22    24 1
   54    22    67 1
   55    22    68 1
   56    23    69 1
   57    23    70 1
   58    23    71 1
   59    24    72 1
   60    24    73 1
   61    24    74 1
   62    25    75 1
   63    26    25 1
   64    26    27 1
   65    26    29 1
   66    26    76 1
   67    27    28 2
   68    27    37 1
   69    29    30 1
   70    29    77 1
   71    29    78 1
   72    30    31 ar
   73    30    32 ar
   74    31    33 ar
   75    31    79 1
   76    32    34 ar
   77    32    80 1
   78    33    35 ar
   79    33    81 1
   80    34    35 ar
   81    34    82 1
   82    35    83 1
   83    36    37 1
   84    36    84 1
   85    36    85 1
   86    36    86 1
@<TRIPOS>SUBSTRUCTURE
1   ****   1
@<TRIPOS>MOLECULE
6rnt
36  38  1  0  0
SMALL
FORMAL_CHARGES
@<TRIPOS>ATOM
    1 P1         0.0514     1.6601     2.2622 P.3        1 ****  0
    2 O1        -1.2770     1.8938     2.5508 O.2        1 ****  0
    3 O2         0.1014     0.3687     1.5588 O.2        1 ****  -1
    4 O3         0.8036     1.4522     3.5977 O.3        1 ****  0
    5 O4         5.3595     1.2017     2.6220 O.3        1 ****  0
    6 C1         5.4380     2.6188     2.4516 C.3        1 ****  0
    7 C2         4.2431     3.0857     1.6102 C.3        1 ****  0
    8 O5         4.2021     2.5131     0.2575 O.3        1 ****  0
    9 C3         2.9285     2.6726     2.2425 C.3        1 ****  0
   10 O6         2.6762     3.3537     3.4696 O.3        1 ****  0
   11 C4         1.8723     2.0402     1.2617 C.3        1 ****  0
   12 O7         0.5958     2.9378     1.4022 O.3        1 ****  0
   13 C5         2.7660     2.4196    -0.0828 C.3        1 ****  0
   14 N1         2.4562     1.0454    -0.2193 N.ar       1 ****  0
   15 C6         3.2155     0.0095     0.1408 C.ar       1 ****  0
   16 N2         2.4910    -1.1150     0.0378 N.ar       1 ****  0
   17 C7         1.2947    -0.7496    -0.3943 C.ar       1 ****  0
   18 C8         0.1200    -1.4673    -0.5330 C.ar       1 ****  0
   19 N3         0.0591    -2.8537    -0.2200 N.pl3      1 ****  0
   20 N4        -0.9621    -0.7868    -0.9019 N.ar       1 ****  0
   21 C9        -0.9199     0.5309    -1.1379 C.ar       1 ****  0
   22 N5         0.1964     1.2458    -0.9796 N.ar       1 ****  0
   23 C10        1.2804     0.5971    -0.6011 C.ar       1 ****  0
   24 H1         0.7146     2.2451     4.1575 H          1 ****  0
   25 H2         5.3468     0.7634     1.7385 H          1 ****  0
   26 H3         6.3458     2.8692     1.9496 H          1 ****  0
   27 H4         5.4089     3.0966     3.4085 H          1 ****  0
   28 H5         4.2483     4.1812     1.5149 H          1 ****  0
   29 H6         2.8670     1.5852     2.3662 H          1 ****  0
   30 H7         2.7143     4.3327     3.3112 H          1 ****  0
   31 H8         1.6843     0.9630     1.3710 H          1 ****  0
   32 H9         2.4927     2.9264    -1.0190 H          1 ****  0
   33 H10        4.2354     0.0662     0.4595 H          1 ****  0
   34 H11        0.9013    -3.3429     0.1105 H          1 ****  0
   35 H12       -0.8418    -3.3493    -0.2664 H          1 ****  0
   36 H13       -1.8101     1.0268    -1.4641 H          1 ****  0
@<TRIPOS>BOND
    1     1     2 2
    2     1     3 1
    3     1     4 1
    4     1    12 1
    5     4    24 1
    6     5     6 1
    7     5    25 1
    8     6    26 1
    9     6    27 1
   10     7     6 1
   11     7     8 1
   12     7     9 1
   13     7    28 1
   14     9    10 1
   15     9    11 1
   16     9    29 1
   17    10    30 1
   18    11    12 1
   19    11    13 1
   20    11    31 1
   21    13     8 1
   22    13    14 1
   23    13    32 1
   24    14    15 ar
   25    14    23 ar
   26    15    16 ar
   27    15    33 1
   28    16    17 ar
   29    17    18 ar
   30    17    23 ar
   31    18    19 1
   32    18    20 ar
   33    19    34 1
   34    19    35 1
   35    20    21 ar
   36    21    22 ar
   37    21    36 1
   38    22    23 ar
@<TRIPOS>SUBSTRUCTURE
1   ****   1
@<TRIPOS>MOLECULE
7tim
14  13  1  0  0
SMALL
FORMAL_CHARGES
@<TRIPOS>ATOM
    1 C1         5.1204     0.0093     0.0010 C.2        1 ****  0
    2 C2         3.8442     0.7984     0.0229 C.3        1 ****  0
    3 O1         0.3350    -0.1290    -0.0288 O.2        1 ****  0
    4 O2         1.3707     1.5160     1.3221 O.2        1 ****  -1
    5 O3         1.3701     1.6818    -1.1487 O.2        1 ****  -1
    6 N1         6.3494     0.6722     0.0158 N.am       1 ****  0
    7 O4         7.4766    -0.0233    -0.0029 O.3        1 ****  0
    8 O5         5.0838    -1.2251    -0.0287 O.2        1 ****  0
    9 O6         2.7295    -0.0941    -0.0264 O.3        1 ****  0
   10 P1         1.4171     0.7263     0.0282 P.3        1 ****  0
   11 H1         3.8129     1.4711    -0.8469 H          1 ****  0
   12 H2         3.7965     1.3928     0.9473 H          1 ****  0
   13 H3         6.3794     1.7014     0.0414 H          1 ****  0
   14 H4         7.4132    -0.5888    -0.8131 H          1 ****  0
@<TRIPOS>BOND
    1     1     2 1
    2     1     6 am
    3     1     8 2
    4     2     9 1
    5     2    11 1
    6     2    12 1
    7     3    10 2
    8     4    10 1
    9     5    10 1
   10     6     7 1
   11     6    13 1
   12     7    14 1
   13     9    10 1
@<TRIPOS>SUBSTRUCTURE
1   ****   1
@<TRIPOS>MOLECULE
1g9v
47  48  1  0  0
SMALL
FORMAL_CHARGES
@<TRIPOS>ATOM
    1 C1        11.7707     2.5575    -0.0015 C.2        1 ****  0.0000
    2 O1        12.7087     1.5781     0.0600 O.co2      1 ****  -0.50
    3 O2        12.1186     3.7427    -0.0583 O.co2      1 ****  -0.50
    4 C2        10.4430     3.6869     0.0053 C.3        1 ****  0
    5 C3         9.7092     2.8501     1.2828 C.3        1 ****  0
    6 C4         9.7007     2.8600    -1.2691 C.3        1 ****  0
    7 O3        10.5784     5.1611     0.0080 O.3        1 ****  0
    8 C5         8.8556     0.1322    -0.0001 C.ar       1 ****  0
    9 C6         7.7222     0.9366    -0.0003 C.ar       1 ****  0
   10 C7         6.4592     0.3567    -0.0002 C.ar       1 ****  0
   11 C8         6.3285    -1.0277     0.0001 C.ar       1 ****  0
   12 C9         8.7266    -1.2516     0.0001 C.ar       1 ****  0
   13 C10        7.4638    -1.8315     0.0002 C.ar       1 ****  0
   14 C11        4.9574    -1.7178     0.0002 C.3        1 ****  0
   15 C12        3.7306    -0.8022     0.0000 C.2        1 ****  0
   16 O4         3.8487     0.4270    -0.0000 O.2        1 ****  0
   17 N1         2.4436    -1.4094    -0.0000 N.am       1 ****  0
   18 C13        1.2099    -0.6988    -0.0001 C.ar       1 ****  0
   19 C14        1.2101     0.6909     0.0000 C.ar       1 ****  0
   20 C15        0.0066     1.3856    -0.0000 C.ar       1 ****  0
   21 C16       -1.1970     0.6911    -0.0001 C.ar       1 ****  0
   22 C17        0.0064    -1.3937    -0.0002 C.ar       1 ****  0
   23 C18       -1.1969    -0.6985    -0.0002 C.ar       1 ****  0
   24 C19        0.0065     2.8836     0.0001 C.3        1 ****  0
   25 C20       -2.4945    -1.4471    -0.0004 C.3        1 ****  0
   26 H1         9.8242     3.9440     1.2660 H          1 ****  0
   27 H2        10.1823     2.4347     2.1848 H          1 ****  0
   28 H3         8.6352     2.6148     1.3149 H          1 ****  0
   29 H4        10.1673     2.4513    -2.1775 H          1 ****  0
   30 H5         9.8158     3.9537    -1.2449 H          1 ****  0
   31 H6         8.6264     2.6250    -1.2954 H          1 ****  0
   32 H7         7.8248     2.0319    -0.0005 H          1 ****  0
   33 H8         5.5622     0.9934    -0.0003 H          1 ****  0
   34 H9         9.6240    -1.8877     0.0003 H          1 ****  0
   35 H10        7.3619    -2.9268     0.0005 H          1 ****  0
   36 H11        4.8984    -2.3754     0.8800 H          1 ****  0
   37 H12        4.8992    -2.3750    -0.8800 H          1 ****  0
   38 H13        2.4015    -2.4385    -0.0001 H          1 ****  0
   39 H14        2.1627     1.2408     0.0001 H          1 ****  0
   40 H15       -2.1496     1.2411    -0.0002 H          1 ****  0
   41 H16        0.0063    -2.4937    -0.0003 H          1 ****  0
   42 H17        0.5939     3.1691    -0.8850 H          1 ****  0
   43 H18        0.5938     3.1690     0.8853 H          1 ****  0
   44 H19       -0.9990     3.3297     0.0001 H          1 ****  0
   45 H20       -3.0352    -1.0810    -0.8856 H          1 ****  0
   46 H21       -3.0353    -1.0811     0.8848 H          1 ****  0
   47 H22       -2.3783    -2.5409    -0.0004 H          1 ****  0
@<TRIPOS>BOND
    1     1     2 ar
    2     1     3 ar
    3     1     4 1
    4     4     5 1
    5     4     6 1
    6     4     7 1
    7     5    26 1
    8     5    27 1
    9     5    28 1
   10     6    29 1
   11     6    30 1
   12     6    31 1
   13     7     8 1
   14     8     9 ar
   15     8    12 ar
   16     9    10 ar
   17     9    32 1
   18    10    11 ar
   19    10    33 1
   20    11    13 ar
   21    11    14 1
   22    12    13 ar
   23    12    34 1
   24    13    35 1
   25    14    15 1
   26    14    36 1
   27    14    37 1
   28    15    16 2
   29    15    17 am
   30    17    18 1
   31    17    38 1
   32    18    19 ar
   33    18    22 ar
   34    19    20 ar
   35    19    39 1
   36    20    21 ar
   37    20    24 1
   38    21    23 ar
   39    21    40 1
   40    22    23 ar
   41    22    41 1
   42    23    25 1
   43    24    42 1
   44    24    43 1
   45    24    44 1
   46    25    45 1
   47    25    46 1
   48    25    47 1
@<TRIPOS>SUBSTRUCTURE
1   ****   1
@<TRIPOS>MOLECULE
1gkc
50  49  1  0  0
SMALL
FORMAL_CHARGES
@<TRIPOS>ATOM
    1 C1         3.7423     0.5675    -2.7978 C.3        1 ****  0
    2 C2         2.5580     2.4740    -1.6713 C.3        1 ****  0
    3 C3         3.8495     1.6355    -1.6951 C.3        1 ****  0
    4 C4         4.0828     0.9297    -0.3221 C.3        1 ****  0
    5 C5         5.0213     2.5808    -2.0167 C.3        1 ****  0
    6 C6         2.9310    -0.0141    -0.0238 C.2        1 ****  0
    7 O1         3.1093    -1.2319    -0.0756 O.2        1 ****  0
    8 N1         5.2983     0.1486    -0.3996 N.am       1 ****  0
    9 N2         1.6692     0.4875     0.3313 N.am       1 ****  0
   10 C7         0.5753    -0.4148     0.5539 C.3        1 ****  0
   11 C8         7.4512    -0.5324    -3.9545 C.3        1 ****  0
   12 C9         7.6655     0.2496    -2.6478 C.3        1 ****  0
   13 C10        8.9942     0.7299     0.3369 C.3        1 ****  0
   14 C11        7.7413     0.6983    -0.7214 C.3        1 ****  0
   15 C12        7.8224    -0.7766    -1.4721 C.3        1 ****  0
   16 C13        8.9056     1.1543    -2.8380 C.3        1 ****  0
   17 C14        6.4993     0.6326     0.1475 C.2        1 ****  0
   18 C15       11.4400     0.6640     0.1586 C.2        1 ****  0
   19 O2        10.2102    -1.3423     0.2013 O.3        1 ****  -1
   20 N3        10.2236    -0.0167     0.2286 N.am       1 ****  0
   21 O3        12.4960     0.0315     0.0453 O.2        1 ****  0
   22 O4         6.5205     1.7150     0.7328 O.2        1 ****  0
   23 H1         3.6058     1.0567    -3.7735 H          1 ****  0
   24 H2         2.8837    -0.0891    -2.5934 H          1 ****  0
   25 H3         4.6638    -0.0328    -2.8167 H          1 ****  0
   26 H4         1.6975     1.8205    -1.4651 H          1 ****  0
   27 H5         2.4196     2.9663    -2.6451 H          1 ****  0
   28 H6         2.6324     3.2383    -0.8837 H          1 ****  0
   29 H7         4.1556     1.6910     0.4686 H          1 ****  0
   30 H8         4.8451     3.0716    -2.9853 H          1 ****  0
   31 H9         5.9582     2.0061    -2.0615 H          1 ****  0
   32 H10        5.1004     3.3456    -1.2300 H          1 ****  0
   33 H11        5.2834    -0.7723    -0.8608 H          1 ****  0
   34 H12        1.5282     1.5028     0.4322 H          1 ****  0
   35 H13        0.9301    -1.1043     1.3340 H          1 ****  0
   36 H14        0.4920    -0.9952    -0.3768 H          1 ****  0
   37 H15       -0.3688     0.0793     0.8271 H          1 ****  0
   38 H16        6.5401    -1.1443    -3.8806 H          1 ****  0
   39 H17        8.3177    -1.1812    -4.1500 H          1 ****  0
   40 H18        7.3400     0.1795    -4.7858 H          1 ****  0
   41 H19        6.8118     0.8967    -2.3981 H          1 ****  0
   42 H20        8.8840     1.0971     1.3679 H          1 ****  0
   43 H21        9.0340     1.5929    -0.3441 H          1 ****  0
   44 H22        7.7111     1.5511    -1.4155 H          1 ****  0
   45 H23        7.0276    -1.5323    -1.5569 H          1 ****  0
   46 H24        8.7789    -1.3064    -1.5922 H          1 ****  0
   47 H25        8.7384     1.8627    -3.6628 H          1 ****  0
   48 H26        9.7959     0.5428    -3.0463 H          1 ****  0
   49 H27        9.0743     1.7223    -1.9113 H          1 ****  0
   50 H28       11.4590     1.7629     0.2044 H          1 ****  0
@<TRIPOS>BOND
    1     1     3 1
    2     1    23 1
    3     1    24 1
    4     1    25 1
    5     2     3 1
    6     2    26 1
    7     2    27 1
    8     2    28 1
    9     3     4 1
   10     3     5 1
   11     4     6 1
   12     4     8 1
   13     4    29 1
   14     5    30 1
   15     5    31 1
   16     5    32 1
   17     6     7 2
   18     6     9 am
   19     8    17 am
   20     8    33 1
   21     9    10 1
   22     9    34 1
   23    10    35 1
   24    10    36 1
   25    10    37 1
   26    11    12 1
   27    11    38 1
   28    11    39 1
   29    11    40 1
   30    12    15 1
   31    12    16 1
   32    12    41 1
   33    13    14 1
   34    13    20 1
   35    13    42 1
   36    13    43 1
   37    14    15 1
   38    14    17 1
   39    14    44 1
   40    15    45 1
   41    15    46 1
   42    16    47 1
   43    16    48 1
   44    16    49 1
   45    17    22 2
   46    18    20 am
   47    18    21 2
   48    18    50 1
   49    19    20 1
@<TRIPOS>SUBSTRUCTURE
1   ****   1
@<TRIPOS>MOLECULE
1gm8
41  43  1  0  0
SMALL
FORMAL_CHARGES
@<TRIPOS>ATOM
    1 O1         1.8267    -1.3847    -1.8692 O.2        1 ****  0
    2 C1         0.9957    -1.7133    -1.0168 C.2        1 ****  0
    3 N1         0.7596    -1.0742     0.0589 N.am       1 ****  0
    4 C2         0.2724     0.0720     0.7334 C.3        1 ****  0
    5 C3         1.3117     0.4385     1.8475 C.2        1 ****  0.0000
    6 O2         2.4678     0.7824     2.4718 O.co2      1 ****  -0.50
    7 O3         0.2804     0.2654     2.5066 O.co2      1 ****  -0.50
    8 C4         0.2074     1.2117    -0.2874 C.3        1 ****  0
    9 C5         0.3441     1.2267    -1.8220 C.3        1 ****  0
   10 C6         0.2662     2.6541     0.2470 C.3        1 ****  0
   11 S1        -1.3029     0.3760     0.1622 S.O        1 ****  0
   12 C7        -0.0564    -0.8133    -0.5791 C.3        1 ****  0
   13 C8        -0.4153    -2.0815    -1.3024 C.3        1 ****  0
   14 N2        -0.4771    -3.5174    -1.1089 N.am       1 ****  0
   15 C9         0.1366    -4.1622    -0.0146 C.2        1 ****  0
   16 O4         0.7563    -3.5000     0.8255 O.2        1 ****  0
   17 C10        0.0098    -5.6801     0.0923 C.3        1 ****  0
   18 C11        0.6907    -6.3387     1.2952 C.ar       1 ****  0
   19 C12        1.3892    -5.6025     2.2445 C.ar       1 ****  0
   20 C13        1.9912    -6.2459     3.3203 C.ar       1 ****  0
   21 C14        1.8943    -7.6260     3.4465 C.ar       1 ****  0
   22 C15        1.1957    -8.3640     2.4976 C.ar       1 ****  0
   23 C16        0.5943    -7.7213     1.4227 C.ar       1 ****  0
   24 O5        -1.6096     0.7106     1.6138 O.2        1 ****  0
   25 H1        -0.7399    -0.1303     1.1134 H          1 ****  0
   26 H2         0.2138     0.2031    -2.2032 H          1 ****  0
   27 H3         1.3491     1.5860    -2.0885 H          1 ****  0
   28 H4        -0.4170     1.8880    -2.2618 H          1 ****  0
   29 H5         1.2714     3.0498     0.0400 H          1 ****  0
   30 H6         0.1226     2.6161     1.3370 H          1 ****  0
   31 H7        -0.5030     3.2839    -0.2237 H          1 ****  0
   32 H8         0.5736    -0.2896    -1.3132 H          1 ****  0
   33 H9        -0.9812    -1.8581    -2.2188 H          1 ****  0
   34 H10       -0.9886    -4.0883    -1.7969 H          1 ****  0
   35 H11        0.4173    -6.1293    -0.8254 H          1 ****  0
   36 H12       -1.0591    -5.9387     0.1143 H          1 ****  0
   37 H13        1.4661    -4.5097     2.1448 H          1 ****  0
   38 H14        2.5439    -5.6622     4.0712 H          1 ****  0
   39 H15        2.3704    -8.1350     4.2975 H          1 ****  0
   40 H16        1.1192    -9.4568     2.5978 H          1 ****  0
   41 H17        0.0417    -8.3054     0.6721 H          1 ****  0
@<TRIPOS>BOND
    1     1     2 2
    2     2     3 am
    3     2    13 1
    4     3     4 1
    5     4     5 1
    6     4     8 1
    7     4    25 1
    8     5     6 ar
    9     5     7 ar
   10     8     9 1
   11     8    10 1
   12     9    26 1
   13     9    27 1
   14     9    28 1
   15    10    29 1
   16    10    30 1
   17    10    31 1
   18    11     8 1
   19    11    12 1
   20    11    24 2
   21    12     3 1
   22    12    13 1
   23    12    32 1
   24    13    14 1
   25    13    33 1
   26    14    15 am
   27    14    34 1
   28    15    16 2
   29    15    17 1
   30    17    18 1
   31    17    35 1
   32    17    36 1
   33    18    19 ar
   34    18    23 ar
   35    19    20 ar
   36    19    37 1
   37    20    21 ar
   38    20    38 1
   39    21    22 ar
   40    21    39 1
   41    22    23 ar
   42    22    40 1
   43    23    41 1
@<TRIPOS>SUBSTRUCTURE
1   ****   1
@<TRIPOS>MOLECULE
1gpk
37  39  1  0  0
SMALL
FORMAL_CHARGES
@<TRIPOS>ATOM
    1 C1         1.2999    -0.7510    -1.3283 C.2        1 ****  0
    2 O1         2.2951    -1.3272    -1.7832 O.2        1 ****  0
    3 N1         1.3060     0.6278    -1.1658 N.am       1 ****  0
    4 C2         0.1229    -1.5103    -0.9600 C.2        1 ****  0
    5 C3        -0.9302    -0.8732    -0.4592 C.2        1 ****  0
    6 C4        -4.5585     2.5824     1.5409 C.2        1 ****  0
    7 C5         0.1929     1.2836    -0.6260 C.2        1 ****  0
    8 C6         0.2681     2.7930    -0.4525 C.3        1 ****  0
    9 C7        -0.6800     2.1523     0.5157 C.3        1 ****  0
   10 C8        -0.3007     2.6259     1.9471 C.2        1 ****  0
   11 C9        -2.8432     4.9505    -0.2436 C.3        1 ****  0
   12 C10       -3.0050     3.4579    -0.1709 C.2        1 ****  0
   13 C11       -1.9936     2.6888     0.2264 C.2        1 ****  0
   14 C12       -3.3388     1.9152     0.9344 C.3        1 ****  0
   15 N2        -3.3483     0.7662    -0.3171 N.4        1 ****  1
   16 C13       -2.1389     0.9257     1.8163 C.3        1 ****  0
   17 C14       -0.9453     1.5817     2.4923 C.2        1 ****  0
   18 C15       -0.4812     1.0507     3.8138 C.3        1 ****  0
   19 H1         2.1349     1.1721    -1.4443 H          1 ****  0
   20 H2         0.1010    -2.6019    -1.0933 H          1 ****  0
   21 H3        -1.8300    -1.4404    -0.1785 H          1 ****  0
   22 H4         0.0183     3.2839    -1.4047 H          1 ****  0
   23 H5         1.2891     3.0761    -0.1568 H          1 ****  0
   24 H6        -0.6471     1.0579     0.4094 H          1 ****  0
   25 H7         0.5620     3.0500     2.4818 H          1 ****  0
   26 H8        -1.9826     5.1115    -0.9094 H          1 ****  0
   27 H9        -2.5338     5.2529     0.7678 H          1 ****  0
   28 H10       -3.7451     5.4798    -0.5847 H          1 ****  0
   29 H11       -3.9652     2.9981    -0.4478 H          1 ****  0
   30 H12       -3.4156    -0.2538    -0.1905 H          1 ****  0
   31 H13       -3.3044     0.9798    -1.3238 H          1 ****  0
   32 H14       -4.1701     1.2249     0.1014 H          1 ****  0
   33 H15       -2.0861    -0.1639     1.9575 H          1 ****  0
   34 H16       -3.0685     1.3088     2.2624 H          1 ****  0
   35 H17       -0.5219     1.9049     4.5057 H          1 ****  0
   36 H18        0.5781     0.7904     3.6715 H          1 ****  0
   37 H19       -1.0741     0.1966     4.1730 H          1 ****  0
@<TRIPOS>BOND
    1     1     2 2
    2     1     3 am
    3     1     4 1
    4     3     7 1
    5     3    19 1
    6     4     5 2
    7     4    20 1
    8     5     6 1
    9     5    21 1
   10     6     7 2
   11     6    14 1
   12     7     8 1
   13     8     9 1
   14     8    22 1
   15     8    23 1
   16     9    10 1
   17     9    13 1
   18     9    24 1
   19    10    17 2
   20    10    25 1
   21    11    12 1
   22    11    26 1
   23    11    27 1
   24    11    28 1
   25    12    13 2
   26    12    29 1
   27    13    14 1
   28    14    15 1
   29    14    16 1
   30    15    30 1
   31    15    31 1
   32    15    32 1
   33    16    17 1
   34    16    33 1
   35    16    34 1
   36    17    18 1
   37    18    35 1
   38    18    36 1
   39    18    37 1
@<TRIPOS>SUBSTRUCTURE
1   ****   1
@<TRIPOS>MOLECULE
1hnn
27  28  1  0  0
SMALL
FORMAL_CHARGES
@<TRIPOS>ATOM
    1 C1         1.2026    -0.7173    -0.0146 C.ar       1 ****  0
    2 C2         1.2079     0.6718    -0.0096 C.ar       1 ****  0
    3 C3         0.0065     1.3689     0.0032 C.ar       1 ****  0
    4 C4        -1.1976     0.6765     0.0120 C.ar       1 ****  0
    5 S1         0.0089     3.1337     0.0069 S.O2       1 ****  0
    6 C5        -1.2059    -0.7134     0.0085 C.ar       1 ****  0
    7 C6        -0.0016    -1.4120    -0.0084 C.ar       1 ****  0
    8 O1         1.4356     3.6414     0.0942 O.2        1 ****  0
    9 O2        -0.7864     3.6376     1.1964 O.2        1 ****  0
   10 N1        -0.7126     3.6975    -1.4305 N.am       1 ****  0
   11 C7        -2.5298    -1.4373     0.0109 C.3        1 ****  0
   12 C8        -1.3493    -3.4547    -0.4366 C.3        1 ****  0
   13 C9         0.0186    -2.9139    -0.0102 C.3        1 ****  0
   14 N2        -2.3661    -2.8408     0.4093 N.4        1 ****  1
   15 H1         2.1540    -1.2693    -0.0237 H          1 ****  0
   16 H2         2.1622     1.2189    -0.0157 H          1 ****  0
   17 H3        -2.1481     1.2302     0.0218 H          1 ****  0
   18 H4        -1.2197     3.0430    -2.0432 H          1 ****  0
   19 H5        -0.6415     4.6926    -1.6865 H          1 ****  0
   20 H6        -3.2140    -0.9394     0.7138 H          1 ****  0
   21 H7        -2.9682    -1.3967    -0.9972 H          1 ****  0
   22 H8        -1.3723    -4.5469    -0.3083 H          1 ****  0
   23 H9        -1.5378    -3.1949    -1.4887 H          1 ****  0
   24 H10        0.7865    -3.2683    -0.7135 H          1 ****  0
   25 H11        0.2562    -3.2785     1.0001 H          1 ****  0
   26 H12       -3.2591    -3.3403     0.2915 H          1 ****  0
   27 H13       -2.0686    -2.8873     1.3943 H          1 ****  0
@<TRIPOS>BOND
    1     1     2 ar
    2     1     7 ar
    3     1    15 1
    4     2     3 ar
    5     2    16 1
    6     3     4 ar
    7     3     5 1
    8     4     6 ar
    9     4    17 1
   10     5     8 2
   11     5     9 2
   12     5    10 am
   13     6     7 ar
   14     6    11 1
   15     7    13 1
   16    10    18 1
   17    10    19 1
   18    11    14 1
   19    11    20 1
   20    11    21 1
   21    12    13 1
   22    12    14 1
   23    12    22 1
   24    12    23 1
   25    13    24 1
   26    13    25 1
   27    14    26 1
   28    14    27 1
@<TRIPOS>SUBSTRUCTURE
1   ****   1
@<TRIPOS>MOLECULE
1hp0
33  35  1  0  0
SMALL
FORMAL_CHARGES
@<TRIPOS>ATOM
    1 O1         1.6893    -5.2305    -2.7009 O.3        1 ****  0
    2 C1         0.5476    -6.0752    -2.5371 C.3        1 ****  0
    3 C2        -0.5048    -5.3516    -1.6808 C.3        1 ****  0
    4 O2        -0.0094    -5.0059    -0.3483 O.3        1 ****  0
    5 C3        -0.4223    -3.9938    -1.3729 C.3        1 ****  0
    6 O3         0.1369    -3.2101    -2.5837 O.3        1 ****  0
    7 C4        -0.7731    -3.0119    -1.2827 C.3        1 ****  0
    8 O4        -2.1656    -2.2065    -1.1880 O.3        1 ****  0
    9 C5        -0.6404    -3.7403    -0.0009 C.3        1 ****  0
   10 N1         0.2992    -2.6598    -0.0004 N.ar       1 ****  0
   11 C6         1.6293    -2.7803    -0.0005 C.ar       1 ****  0
   12 N2         2.1804    -1.5579    -0.0004 N.ar       1 ****  0
   13 C7         1.1780    -0.6891    -0.0002 C.ar       1 ****  0
   14 C8         1.1911     0.6945    -0.0001 C.ar       1 ****  0
   15 N3         2.4206     1.4210    -0.0001 N.pl3      1 ****  0
   16 N4         0.0176     1.3287     0.0000 N.ar       1 ****  0
   17 C9        -1.1504     0.6739     0.0000 C.ar       1 ****  0
   18 C10       -1.2156    -0.7202    -0.0001 C.ar       1 ****  0
   19 C11        0.0010    -1.3766    -0.0002 C.ar       1 ****  0
   20 H1         2.0752    -5.0192    -1.8140 H          1 ****  0
   21 H2         0.1197    -6.3090    -3.5231 H          1 ****  0
   22 H3         0.8484    -7.0075    -2.0369 H          1 ****  0
   23 H4        -1.3304    -6.0750    -1.6094 H          1 ****  0
   24 H5         0.1442    -3.9377    -0.4316 H          1 ****  0
   25 H6         0.7534    -3.6700    -3.2070 H          1 ****  0
   26 H7         0.1621    -2.4682    -1.4815 H          1 ****  0
   27 H8        -2.7696    -2.1548    -1.9707 H          1 ****  0
   28 H9        -1.0623    -3.7466     1.0150 H          1 ****  0
   29 H10        2.1839    -3.7302    -0.0006 H          1 ****  0
   30 H11        3.3106     0.9025    -0.0002 H          1 ****  0
   31 H12        2.4200     2.4510     0.0000 H          1 ****  0
   32 H13       -2.0863     1.2519     0.0001 H          1 ****  0
   33 H14       -2.1731    -1.2617    -0.0001 H          1 ****  0
@<TRIPOS>BOND
    1     1     2 1
    2     1    20 1
    3     2    21 1
    4     2    22 1
    5     3     2 1
    6     3     4 1
    7     3     5 1
    8     3    23 1
    9     5     6 1
   10     5     7 1
   11     5    24 1
   12     6    25 1
   13     7     8 1
   14     7     9 1
   15     7    26 1
   16     8    27 1
   17     9     4 1
   18     9    10 1
   19     9    28 1
   20    10    11 ar
   21    10    19 ar
   22    11    12 ar
   23    11    29 1
   24    12    13 ar
   25    13    14 ar
   26    13    19 ar
   27    14    15 1
   28    14    16 ar
   29    15    30 1
   30    15    31 1
   31    16    17 ar
   32    17    18 ar
   33    17    32 1
   34    18    19 ar
   35    18    33 1
@<TRIPOS>SUBSTRUCTURE
1   ****   1
@<TRIPOS>MOLECULE
1hq2
23  24  1  0  0
SMALL
FORMAL_CHARGES
@<TRIPOS>ATOM
    1 C1         1.2403    -0.7363    -0.0002 C.3        1 ****  0
    2 N1         1.2393     0.7462    -0.0001 N.3        1 ****  0
    3 C2        -0.0555     1.3751     0.0000 C.2        1 ****  0
    4 N2        -0.1056     2.7856     0.0002 N.2        1 ****  0
    5 C3        -1.2051     3.4324     0.0002 C.2        1 ****  0
    6 N3        -1.1799     4.8606     0.0004 N.3        1 ****  0
    7 C4        -1.1855     0.6754    -0.0000 C.2        1 ****  0
    8 C5        -2.4454     1.3859     0.0001 C.2        1 ****  0
    9 N4        -2.4299     2.7651     0.0002 N.am       1 ****  0
   10 O1        -3.5167     0.7685     0.0000 O.2        1 ****  0
   11 N5        -1.1887    -0.7061    -0.0002 N.2        1 ****  0
   12 C6        -0.1170    -1.3830    -0.0003 C.2        1 ****  0
   13 C7        -0.2027    -2.8790    -0.0005 C.3        1 ****  0
   14 O2         1.1154    -3.4338     0.0001 O.3        1 ****  0
   15 H1         1.7947    -1.0869     0.8828 H          1 ****  0
   16 H2         1.7945    -1.0858    -0.8838 H          1 ****  0
   17 H3         2.1121     1.2931    -0.0001 H          1 ****  0
   18 H4        -0.2822     5.3655     0.0004 H          1 ****  0
   19 H5        -2.0649     5.3875     0.0005 H          1 ****  0
   20 H6        -3.3125     3.2960     0.0003 H          1 ****  0
   21 H7        -0.7417    -3.2155     0.8974 H          1 ****  0
   22 H8        -0.7410    -3.2163    -0.8985 H          1 ****  0
   23 H9         1.6006    -3.1317     0.8085 H          1 ****  0
@<TRIPOS>BOND
    1     1     2 1
    2     1    12 1
    3     1    15 1
    4     1    16 1
    5     2     3 1
    6     2    17 1
    7     3     4 1
    8     3     7 2
    9     4     5 2
   10     5     6 1
   11     5     9 1
   12     6    18 1
   13     6    19 1
   14     7     8 1
   15     7    11 1
   16     8     9 am
   17     8    10 2
   18     9    20 1
   19    11    12 2
   20    12    13 1
   21    13    14 1
   22    13    21 1
   23    13    22 1
   24    14    23 1
@<TRIPOS>SUBSTRUCTURE
1   ****   1
@<TRIPOS>MOLECULE
1hvy
52  54  1  0  0
SMALL
FORMAL_CHARGES
@<TRIPOS>ATOM
    1 N1         1.1867    -0.6220    -0.0001 N.2        1 ****  0
    2 C1         1.1837     0.6556    -0.0000 C.2        1 ****  0
    3 C2         2.4894     1.3902     0.0001 C.3        1 ****  0
    4 N2        -0.0205     1.3882    -0.0000 N.am       1 ****  0
    5 C3        -1.2360     0.7217    -0.0001 C.2        1 ****  0
    6 O1        -2.3017     1.3487    -0.0001 O.2        1 ****  0
    7 C4        -1.2268    -0.7168    -0.0002 C.ar       1 ****  0
    8 C5        -2.4106    -1.4429    -0.0003 C.ar       1 ****  0
    9 C6        -2.3641    -2.8322    -0.0004 C.ar       1 ****  0
   10 C7        -1.1381    -3.4877    -0.0004 C.ar       1 ****  0
   11 C8         0.0437    -2.7562    -0.0003 C.ar       1 ****  0
   12 C9        -0.0022    -1.3680    -0.0002 C.ar       1 ****  0
   13 C10       -3.6485    -3.6322    -0.0071 C.3        1 ****  0
   14 N3        -4.7833    -2.9391    -0.6691 N.pl3      1 ****  0
   15 C11       -8.0108    -3.6390     1.2364 C.ar       1 ****  0
   16 S1        -6.3541    -3.8880     1.3364 S.3        1 ****  0
   17 C12       -6.0909    -3.0974    -0.1069 C.ar       1 ****  0
   18 C13       -7.2550    -2.6284    -0.6940 C.ar       1 ****  0
   19 C14       -8.3696    -2.9426     0.0855 C.ar       1 ****  0
   20 C15       -8.9651    -4.1013     2.2423 C.2        1 ****  0
   21 O2       -10.1688    -3.8633     2.0953 O.2        1 ****  0
   22 N4        -8.5290    -4.8094     3.3735 N.am       1 ****  0
   23 C16       -9.4924    -5.1539     4.3834 C.3        1 ****  0
   24 C17       -8.8345    -5.9943     5.4967 C.3        1 ****  0
   25 C18       -9.9298    -6.3402     6.5338 C.3        1 ****  0
   26 C19       -9.3626    -7.1239     7.6845 C.2        1 ****  0.0000
   27 O3       -10.1146    -7.5377     8.5750 O.co2      1 ****  -0.50
   28 O4        -8.0298    -7.3688     7.7555 O.co2      1 ****  -0.50
   29 C20      -10.0112    -3.8879     4.9921 C.2        1 ****  0.0000
   30 O5        -9.2403    -3.1354     5.5984 O.co2      1 ****  -0.50
   31 O6       -11.3209    -3.5603     4.8640 O.co2      1 ****  -0.50
   32 C21       -4.6618    -2.3756    -2.0337 C.3        1 ****  0
   33 H1         3.0309     1.0316    -0.8877 H          1 ****  0
   34 H2         3.0309     1.0314     0.8878 H          1 ****  0
   35 H3         2.3713     2.4838     0.0001 H          1 ****  0
   36 H4         0.0027     2.4179     0.0001 H          1 ****  0
   37 H5        -3.3793    -0.9217    -0.0003 H          1 ****  0
   38 H6        -1.1033    -4.5872    -0.0005 H          1 ****  0
   39 H7         1.0134    -3.2755    -0.0004 H          1 ****  0
   40 H8        -3.4692    -4.5881    -0.5209 H          1 ****  0
   41 H9        -3.9310    -3.8616     1.0309 H          1 ****  0
   42 H10       -7.2955    -2.0813    -1.6474 H          1 ****  0
   43 H11       -9.4033    -2.6734    -0.1771 H          1 ****  0
   44 H12       -7.5397    -5.0765     3.4776 H          1 ****  0
   45 H13      -10.3033    -5.7376     3.9233 H          1 ****  0
   46 H14       -8.4239    -6.9207     5.0688 H          1 ****  0
   47 H15       -8.0371    -5.4115     5.9809 H          1 ****  0
   48 H16      -10.3749    -5.4093     6.9151 H          1 ****  0
   49 H17      -10.7176    -6.9333     6.0464 H          1 ****  0
   50 H18       -4.3386    -3.2294    -2.6475 H          1 ****  0
   51 H19       -3.7995    -1.6960    -1.9663 H          1 ****  0
   52 H20       -5.5679    -1.8857    -2.4195 H          1 ****  0
@<TRIPOS>BOND
    1     1     2 2
    2     1    12 1
    3     2     3 1
    4     2     4 1
    5     3    33 1
    6     3    34 1
    7     3    35 1
    8     4     5 am
    9     4    36 1
   10     5     6 2
   11     5     7 1
   12     7     8 ar
   13     7    12 ar
   14     8     9 ar
   15     8    37 1
   16     9    10 ar
   17     9    13 1
   18    10    11 ar
   19    10    38 1
   20    11    12 ar
   21    11    39 1
   22    13    14 1
   23    13    40 1
   24    13    41 1
   25    14    17 1
   26    14    32 1
   27    15    16 ar
   28    15    19 ar
   29    15    20 1
   30    16    17 ar
   31    17    18 ar
   32    18    19 ar
   33    18    42 1
   34    19    43 1
   35    20    21 2
   36    20    22 am
   37    22    44 1
   38    23    22 1
   39    23    24 1
   40    23    29 1
   41    23    45 1
   42    24    25 1
   43    24    46 1
   44    24    47 1
   45    25    26 1
   46    25    48 1
   47    25    49 1
   48    26    27 ar
   49    26    28 ar
   50    29    30 ar
   51    29    31 ar
   52    32    50 1
   53    32    51 1
   54    32    52 1
@<TRIPOS>SUBSTRUCTURE
1   ****   1
@<TRIPOS>MOLECULE
1hwi
55  57  1  0  0
SMALL
FORMAL_CHARGES
@<TRIPOS>ATOM
    1 C1         1.2587    -0.7032    -0.0110 C.ar       1 ****  0
    2 C2         1.2635     0.6672     0.0264 C.ar       1 ****  0
    3 C3         0.0839     1.3952     0.0514 C.ar       1 ****  0
    4 C4        -1.1160     0.6872     0.0229 C.ar       1 ****  0
    5 C5        -1.1205    -0.7082    -0.0219 C.ar       1 ****  0
    6 C6         0.0726    -1.4256    -0.0325 C.ar       1 ****  0
    7 C7         2.5744    -1.1351     0.0116 C.ar       1 ****  0
    8 C8         3.3512     0.0454     0.0536 C.ar       1 ****  0
    9 N1         2.5190     1.1106     0.0461 N.ar       1 ****  0
   10 C9         2.3876    -4.9706    -0.0763 C.ar       1 ****  0
   11 C10        2.0318    -3.6253    -0.0785 C.ar       1 ****  0
   12 C11        2.9956    -2.6254     0.0297 C.ar       1 ****  0
   13 C12        4.3185    -3.0244     0.1590 C.ar       1 ****  0
   14 C13        4.6924    -4.3606     0.1552 C.ar       1 ****  0
   15 C14        3.7217    -5.3414     0.0330 C.ar       1 ****  0
   16 F1         4.0743    -6.6351     0.0207 F          1 ****  0
   17 O1        12.0539    -4.4027    -0.0126 O.co2      1 ****  -0.50
   18 O2        12.0287    -2.1785    -0.3218 O.co2      1 ****  -0.50
   19 O3         9.7326    -1.3181     1.1533 O.3        1 ****  0
   20 C15       11.3941    -3.3626    -0.1157 C.2        1 ****  0.0000
   21 C16        9.8883    -3.4148    -0.0752 C.3        1 ****  0
   22 C17        9.3168    -1.9803    -0.0443 C.3        1 ****  0
   23 C18        7.7775    -2.0303    -0.1143 C.3        1 ****  0
   24 C19        7.1677    -0.5970    -0.2076 C.3        1 ****  0
   25 C20        5.6976    -0.7249    -0.4119 C.2        1 ****  0
   26 C21        4.8543     0.1394     0.1365 C.2        1 ****  0
   27 C22        2.8206     2.6005     0.0203 C.3        1 ****  0
   28 C23        4.2986     3.0312     0.1657 C.3        1 ****  0
   29 C24        2.3141     3.2050    -1.3126 C.3        1 ****  0
   30 O4         7.4017     0.1793     0.9800 O.3        1 ****  0
   31 H1         0.0945     2.4644     0.0912 H          1 ****  0
   32 H2        -2.0444     1.2190     0.0355 H          1 ****  0
   33 H3        -2.0527    -1.2329    -0.0484 H          1 ****  0
   34 H4         0.0758    -2.4953    -0.0564 H          1 ****  0
   35 H5         1.6306    -5.7223    -0.1590 H          1 ****  0
   36 H6         1.0003    -3.3543    -0.1649 H          1 ****  0
   37 H7         5.0760    -2.2762     0.2654 H          1 ****  0
   38 H8         5.7235    -4.6316     0.2459 H          1 ****  0
   39 H9        10.7122    -1.2470     1.1801 H          1 ****  0
   40 H10        9.5248    -3.9249    -0.9469 H          1 ****  0
   41 H11        9.5723    -3.9424     0.8010 H          1 ****  0
   42 H12        9.6845    -1.4329    -0.9198 H          1 ****  0
   43 H13        7.3960    -2.5222     0.7648 H          1 ****  0
   44 H14        7.4779    -2.6022    -0.9801 H          1 ****  0
   45 H15        7.5984    -0.0839    -1.0727 H          1 ****  0
   46 H16        5.3163    -1.5260    -1.0100 H          1 ****  0
   47 H17        5.2706     0.9636     0.6771 H          1 ****  0
   48 H18        2.2584     3.0689     0.8404 H          1 ****  0
   49 H19        4.8277     2.5180    -0.6350 H          1 ****  0
   50 H20        4.6372     2.5866     1.0995 H          1 ****  0
   51 H21        4.4200     4.0320     0.1395 H          1 ****  0
   52 H22        1.2586     3.0547    -1.3960 H          1 ****  0
   53 H23        2.8077     2.7283    -2.1328 H          1 ****  0
   54 H24        2.5265     4.2573    -1.3323 H          1 ****  0
   55 H25        8.3610     0.3373     1.1050 H          1 ****  0
@<TRIPOS>BOND
    1     1     2 ar
    2     1     6 ar
    3     1     7 ar
    4     2     3 ar
    5     2     9 ar
    6     3     4 ar
    7     3    31 1
    8     4     5 ar
    9     4    32 1
   10     5     6 ar
   11     5    33 1
   12     6    34 1
   13     7     8 ar
   14     7    12 1
   15     8     9 ar
   16     8    26 1
   17     9    27 1
   18    10    11 ar
   19    10    15 ar
   20    10    35 1
   21    11    12 ar
   22    11    36 1
   23    12    13 ar
   24    13    14 ar
   25    13    37 1
   26    14    15 ar
   27    14    38 1
   28    15    16 1
   29    17    20 ar
   30    18    20 ar
   31    19    39 1
   32    20    21 1
   33    21    22 1
   34    21    40 1
   35    21    41 1
   36    22    19 1
   37    22    23 1
   38    22    42 1
   39    23    24 1
   40    23    43 1
   41    23    44 1
   42    24    25 1
   43    24    30 1
   44    24    45 1
   45    25    26 2
   46    25    46 1
   47    26    47 1
   48    27    28 1
   49    27    29 1
   50    27    48 1
   51    28    49 1
   52    28    50 1
   53    28    51 1
   54    29    52 1
   55    29    53 1
   56    29    54 1
   57    30    55 1
@<TRIPOS>SUBSTRUCTURE
1   ****   1
@<TRIPOS>MOLECULE
1hww
28  29  1  0  0
SMALL
FORMAL_CHARGES
@<TRIPOS>ATOM
    1 C1         1.3501    -0.6607     0.1162 C.3        1 ****  0
    2 O1         2.4555    -1.2666    -0.5586 O.3        1 ****  0
    3 C2         1.1574     0.7649    -0.3842 C.3        1 ****  0
    4 N1         0.0749     1.3964     0.3360 N.4        1 ****  1
    5 C3        -1.2068     0.7804    -0.0050 C.3        1 ****  0
    6 C4        -1.1522    -0.7044     0.4465 C.3        1 ****  0
    7 C5         0.0511    -1.4215    -0.2214 C.3        1 ****  0
    8 C6         0.1848     2.8458     0.0295 C.3        1 ****  0
    9 C7         1.0801     2.0421    -0.8498 C.3        1 ****  0
   10 O2         1.4288     2.8259    -2.0311 O.3        1 ****  0
   11 C8         2.3027     1.7086    -0.1279 C.3        1 ****  0
   12 O3         2.4956     1.7987     1.2865 O.3        1 ****  0
   13 H1         1.5572    -0.6809     1.1964 H          1 ****  0
   14 H2         3.2759    -0.7414    -0.3818 H          1 ****  0
   15 H3         1.0076     0.6267    -1.4651 H          1 ****  0
   16 H4         0.1331     1.2684     1.3564 H          1 ****  0
   17 H5        -2.0205     1.2982     0.5241 H          1 ****  0
   18 H6        -1.3668     0.8305    -1.0921 H          1 ****  0
   19 H7        -2.0848    -1.2101     0.1558 H          1 ****  0
   20 H8        -1.0424    -0.7498     1.5401 H          1 ****  0
   21 H9         0.1192    -2.4522     0.1568 H          1 ****  0
   22 H10       -0.0916    -1.4384    -1.3120 H          1 ****  0
   23 H11        0.1351     3.4369     0.9559 H          1 ****  0
   24 H12       -0.5913     3.1427    -0.6912 H          1 ****  0
   25 H13        0.5606     1.1004    -1.0808 H          1 ****  0
   26 H14        0.8347     3.5306    -2.3924 H          1 ****  0
   27 H15        3.2778     1.4690    -0.5773 H          1 ****  0
   28 H16        2.7154     0.9078     1.6582 H          1 ****  0
@<TRIPOS>BOND
    1     1     2 1
    2     1     7 1
    3     1    13 1
    4     2    14 1
    5     3     1 1
    6     3     4 1
    7     3    11 1
    8     3    15 1
    9     4     5 1
   10     4     8 1
   11     4    16 1
   12     5     6 1
   13     5    17 1
   14     5    18 1
   15     6     7 1
   16     6    19 1
   17     6    20 1
   18     7    21 1
   19     7    22 1
   20     8    23 1
   21     8    24 1
   22     9     8 1
   23     9    10 1
   24     9    25 1
   25    10    26 1
   26    11     9 1
   27    11    12 1
   28    11    27 1
   29    12    28 1
@<TRIPOS>SUBSTRUCTURE
1   ****   1
@<TRIPOS>MOLECULE
1ia1
32  34  1  0  0
SMALL
FORMAL_CHARGES
@<TRIPOS>ATOM
    1 C1         1.1481    -0.7098    -0.0002 C.ar       1 ****  0
    2 C2         1.1751     0.6787    -0.0000 C.ar       1 ****  0
    3 C3        -0.0416     1.3545     0.0000 C.ar       1 ****  0
    4 N1        -1.1706     0.6582    -0.0001 N.ar       1 ****  0
    5 C4        -1.1595    -0.6698    -0.0002 C.ar       1 ****  0
    6 N2        -0.0160    -1.3447    -0.0002 N.ar       1 ****  1
    7 N3        -0.1088     2.7811     0.0001 N.pl3      1 ****  0
    8 C5         2.3314    -1.4372    -0.0002 C.ar       1 ****  0
    9 C6         3.5514    -0.7745    -0.0002 C.ar       1 ****  0
   10 C7         3.5830     0.6139    -0.0001 C.ar       1 ****  0
   11 C8         2.4006     1.3449    -0.0000 C.ar       1 ****  0
   12 N4        -2.3975    -1.3824    -0.0003 N.pl3      1 ****  0
   13 S1         2.5026     3.1332     0.0002 S.3        1 ****  0
   14 C9         4.1534     3.8451     0.0010 C.ar       1 ****  0
   15 C10        5.2959     3.0528     0.0005 C.ar       1 ****  0
   16 C11        6.5533     3.6449     0.0009 C.ar       1 ****  0
   17 C12        6.6689     5.0300     0.0019 C.ar       1 ****  0
   18 C13        5.5276     5.8232     0.0025 C.ar       1 ****  0
   19 C14        4.2702     5.2310     0.0020 C.ar       1 ****  0
   20 H1        -0.0335    -2.3745    -0.0003 H          1 ****  0
   21 H2         0.7700     3.3184     0.0002 H          1 ****  0
   22 H3        -1.0169     3.2672     0.0002 H          1 ****  0
   23 H4         2.3020    -2.5368    -0.0003 H          1 ****  0
   24 H5         4.4904    -1.3476    -0.0003 H          1 ****  0
   25 H6         4.5498     1.1386    -0.0001 H          1 ****  0
   26 H7        -3.2923    -0.8723    -0.0003 H          1 ****  0
   27 H8        -2.3942    -2.4124    -0.0004 H          1 ****  0
   28 H9         5.2046     1.9566    -0.0003 H          1 ****  0
   29 H10        7.4568     3.0175     0.0005 H          1 ****  0
   30 H11        7.6641     5.4986     0.0023 H          1 ****  0
   31 H12        5.6195     6.9193     0.0033 H          1 ****  0
   32 H13        3.3669     5.8588     0.0024 H          1 ****  0
@<TRIPOS>BOND
    1     1     2 ar
    2     1     6 ar
    3     1     8 ar
    4     2     3 ar
    5     2    11 ar
    6     3     4 ar
    7     3     7 1
    8     4     5 ar
    9     5     6 ar
   10     5    12 1
   11     6    20 1
   12     7    21 1
   13     7    22 1
   14     8     9 ar
   15     8    23 1
   16     9    10 ar
   17     9    24 1
   18    10    11 ar
   19    10    25 1
   20    11    13 1
   21    12    26 1
   22    12    27 1
   23    13    14 1
   24    14    15 ar
   25    14    19 ar
   26    15    16 ar
   27    15    28 1
   28    16    17 ar
   29    16    29 1
   30    17    18 ar
   31    17    30 1
   32    18    19 ar
   33    18    31 1
   34    19    32 1
@<TRIPOS>SUBSTRUCTURE
1   ****   1
@<TRIPOS>MOLECULE
1ig3
35  36  1  0  0
SMALL
FORMAL_CHARGES
@<TRIPOS>ATOM
    1 C1         0.0099     2.8169     0.0001 C.3        1 ****  0
    2 N1         2.4522    -1.3507    -0.0001 N.pl3      1 ****  0
    3 C2         0.1160    -5.8030     0.0011 C.3        1 ****  0
    4 O1        -4.4025    -8.8130     0.0006 O.3        1 ****  0
    5 C3        -4.1806    -7.3997     0.0002 C.3        1 ****  0
    6 C4        -2.6663    -7.1202     0.0005 C.3        1 ****  0
    7 C5        -2.4889    -3.2235    -0.0010 C.ar       1 ****  0
    8 S1        -3.6181    -4.4717    -0.0009 S.3        1 ****  0
    9 C6        -2.4214    -5.6435     0.0000 C.ar       1 ****  0
   10 C7        -1.1725    -5.0414     0.0003 C.ar       1 ****  0
   11 N2        -1.2525    -3.7144    -0.0003 N.ar       1 ****  1
   12 C8         0.0076    -2.9179    -0.0004 C.3        1 ****  0
   13 C9         1.2023    -0.6592    -0.0001 C.ar       1 ****  0
   14 N3         1.1695     0.6667     0.0000 N.ar       1 ****  0
   15 C10        0.0109     1.3187     0.0000 C.ar       1 ****  0
   16 N4        -1.1473     0.6657    -0.0001 N.ar       1 ****  0
   17 C11       -1.1832    -0.6606    -0.0003 C.ar       1 ****  0
   18 C12        0.0100    -1.3671    -0.0003 C.ar       1 ****  0
   19 H1         0.5911     3.1098    -0.8867 H          1 ****  0
   20 H2         0.5910     3.1097     0.8870 H          1 ****  0
   21 H3        -0.9995     3.2541     0.0001 H          1 ****  0
   22 H4         3.3323    -0.8155     0.0001 H          1 ****  0
   23 H5         2.4741    -2.3805    -0.0001 H          1 ****  0
   24 H6         0.0277    -6.4570    -0.8790 H          1 ****  0
   25 H7         0.0270    -6.4563     0.8816 H          1 ****  0
   26 H8         1.0291    -5.1898     0.0012 H          1 ****  0
   27 H9        -3.9941    -9.2126     0.8092 H          1 ****  0
   28 H10       -4.6346    -6.9571    -0.8987 H          1 ****  0
   29 H11       -4.6350    -6.9555     0.8981 H          1 ****  0
   30 H12       -2.2109    -7.5659    -0.8961 H          1 ****  0
   31 H13       -2.2123    -7.5653     0.8982 H          1 ****  0
   32 H14       -2.7383    -2.1522    -0.0015 H          1 ****  0
   33 H15        0.6014    -3.2484     0.8645 H          1 ****  0
   34 H16        0.6020    -3.2480    -0.8651 H          1 ****  0
   35 H17       -2.1461    -1.1923    -0.0004 H          1 ****  0
@<TRIPOS>BOND
    1     1    15 1
    2     1    19 1
    3     1    20 1
    4     1    21 1
    5     2    13 1
    6     2    22 1
    7     2    23 1
    8     3    10 1
    9     3    24 1
   10     3    25 1
   11     3    26 1
   12     4     5 1
   13     4    27 1
   14     5     6 1
   15     5    28 1
   16     5    29 1
   17     6     9 1
   18     6    30 1
   19     6    31 1
   20     7     8 ar
   21     7    11 ar
   22     7    32 1
   23     8     9 ar
   24     9    10 ar
   25    10    11 ar
   26    11    12 1
   27    12    18 1
   28    12    33 1
   29    12    34 1
   30    13    14 ar
   31    13    18 ar
   32    14    15 ar
   33    15    16 ar
   34    16    17 ar
   35    17    18 ar
   36    17    35 1
@<TRIPOS>SUBSTRUCTURE
1   ****   1
@<TRIPOS>MOLECULE
1j3j
31  32  1  0  0
SMALL
FORMAL_CHARGES
@<TRIPOS>ATOM
    1 N1         1.1659    -0.6428    -0.0002 N.ar       1 ****  0
    2 C1         1.1844     0.6745    -0.0000 C.ar       1 ****  0
    3 C2         0.0347    -1.3295    -0.0003 C.ar       1 ****  0
    4 C3        -1.2011    -0.6478    -0.0001 C.ar       1 ****  0
    5 C4        -1.1315     0.7655     0.0002 C.ar       1 ****  0
    6 N2         0.0610     1.3653     0.0002 N.ar       1 ****  1
    7 C5        -2.5939    -1.4328    -0.0002 C.ar       1 ****  0
    8 C6        -2.6343    -2.8221    -0.0003 C.ar       1 ****  0
    9 C7        -3.8261    -3.5357    -0.0004 C.ar       1 ****  0
   10 C8        -5.0357    -2.8597    -0.0004 C.ar       1 ****  0
   11 C9        -5.0338    -1.4739    -0.0004 C.ar       1 ****  0
   12 C10       -3.8278    -0.7841    -0.0003 C.ar       1 ****  0
   13 N3         0.2456    -2.7766    -0.0005 N.pl3      1 ****  0
   14 N4         2.4321     1.3657     0.0000 N.pl3      1 ****  0
   15 C11       -2.4031     1.6629     0.0007 C.3        1 ****  0
   16 C12       -2.1769     3.1955    -0.0016 C.3        1 ****  0
   17 Cl1       -6.5197    -3.7296    -0.0005 Cl         1 ****  0
   18 H1         0.1369     2.3422     0.0005 H          1 ****  0
   19 H2        -1.7112    -3.3632    -0.0002 H          1 ****  0
   20 H3        -3.8101    -4.6056    -0.0004 H          1 ****  0
   21 H4        -5.9590    -0.9364    -0.0005 H          1 ****  0
   22 H5        -3.8468     0.2857    -0.0003 H          1 ****  0
   23 H6         1.2140    -3.1249    -0.0005 H          1 ****  0
   24 H7        -0.4903    -3.4427    -0.0005 H          1 ****  0
   25 H8         3.3142     0.8361    -0.0001 H          1 ****  0
   26 H9         2.4479     2.3951     0.0002 H          1 ****  0
   27 H10       -3.0211     1.4003     0.8748 H          1 ****  0
   28 H11       -3.0240     1.3970    -0.8739 H          1 ****  0
   29 H12       -1.5635     3.3993    -0.8758 H          1 ****  0
   30 H13       -1.5611     3.4015     0.8705 H          1 ****  0
   31 H14       -3.0437     3.7184    -0.0011 H          1 ****  0
@<TRIPOS>BOND
    1     1     2 ar
    2     1     3 ar
    3     2     6 ar
    4     2    14 1
    5     3     4 ar
    6     3    13 1
    7     4     5 ar
    8     4     7 1
    9     5     6 ar
   10     5    15 1
   11     6    18 1
   12     7     8 ar
   13     7    12 ar
   14     8     9 ar
   15     8    19 1
   16     9    10 ar
   17     9    20 1
   18    10    11 ar
   19    10    17 1
   20    11    12 ar
   21    11    21 1
   22    12    22 1
   23    13    23 1
   24    13    24 1
   25    14    25 1
   26    14    26 1
   27    15    16 1
   28    15    27 1
   29    15    28 1
   30    16    29 1
   31    16    30 1
   32    16    31 1
@<TRIPOS>SUBSTRUCTURE
1   ****   1
@<TRIPOS>MOLECULE
1jd0
18  18  1  0  0
SMALL
FORMAL_CHARGES
@<TRIPOS>ATOM
    1 C1         0.7682    -0.8596    -0.0002 C.ar       1 ****  0
    2 C2        -1.1297     0.5149    -0.0001 C.ar       1 ****  0
    3 C3        -2.6689     2.5362     0.0000 C.2        1 ****  0
    4 C4        -1.5686     3.5659    -0.0000 C.3        1 ****  0
    5 N1         1.7235    -3.1632     1.3336 N.am       1 ****  -1
    6 N2         0.0182     1.1891     0.0002 N.ar       1 ****  0
    7 N3         1.0508     0.4413     0.0002 N.ar       1 ****  0
    8 N4        -2.4143     1.1288    -0.0000 N.am       1 ****  0
    9 O1         3.3694    -1.5202     0.0921 O.2        1 ****  0
   10 O2         1.8693    -2.9385    -1.2814 O.2        1 ****  0
   11 O3        -3.8421     2.9263     0.0001 O.2        1 ****  0
   12 S1         1.9855    -2.1348    -0.0002 S.O2       1 ****  0
   13 S2        -0.8827    -1.1416    -0.0004 S.3        1 ****  0
   14 H1        -0.9646     3.3021    -0.8807 H          1 ****  0
   15 H2        -0.9645     3.3020     0.8806 H          1 ****  0
   16 H3        -1.9045     4.6133     0.0001 H          1 ****  0
   17 H4         2.1264    -4.1111     1.3401 H          1 ****  0
   18 H5        -3.2330     0.5039    -0.0001 H          1 ****  0
@<TRIPOS>BOND
    1     1     7 ar
    2     1    12 1
    3     1    13 ar
    4     2     6 ar
    5     2     8 1
    6     2    13 ar
    7     3     4 1
    8     3     8 am
    9     3    11 2
   10     4    14 1
   11     4    15 1
   12     4    16 1
   13     5    12 1
   14     5    17 1
   15     6     7 ar
   16     8    18 1
   17     9    12 2
   18    10    12 2
@<TRIPOS>SUBSTRUCTURE
1   ****   1
@<TRIPOS>MOLECULE
1jje
41  43  1  0  0
SMALL
FORMAL_CHARGES
@<TRIPOS>ATOM
    1 C1         4.9905    -1.3816     0.1351 C.3        1 ****  0
    2 C2         5.0617    -1.8850    -1.2816 C.2        1 ****  0.0000
    3 O1         5.1328    -1.0832    -2.2191 O.co2      1 ****  -0.50
    4 O2         5.0480    -3.2209    -1.5289 O.co2      1 ****  -0.50
    5 C3         6.2063    -0.4735     0.4379 C.3        1 ****  0
    6 C4         7.5118    -1.2368     0.3879 C.ar       1 ****  0
    7 C5         7.5277    -2.6194     0.5241 C.ar       1 ****  0
    8 C6         8.7397    -3.2990     0.5783 C.ar       1 ****  0
    9 C7         9.9346    -2.5952     0.4967 C.ar       1 ****  0
   10 C8         9.9191    -1.2115     0.3609 C.ar       1 ****  0
   11 C9         8.7084    -0.5325     0.3067 C.ar       1 ****  0
   12 C10        3.7222    -1.3726     0.9783 C.3        1 ****  0
   13 C11        3.6636    -0.0145     1.6934 C.2        1 ****  0.0000
   14 O3         3.5898    -0.8122     2.6341 O.co2      1 ****  -0.50
   15 O4         3.6878     1.3222     1.9352 O.co2      1 ****  -0.50
   16 C12        2.5049    -1.4408     0.0029 C.3        1 ****  0
   17 C13        1.2004    -0.6780    -0.0003 C.ar       1 ****  0
   18 C14        1.2140     0.7146    -0.0001 C.ar       1 ****  0
   19 C15       -0.0032     1.3796    -0.0000 C.ar       1 ****  0
   20 O5        -0.1761     2.7318     0.0001 O.3        1 ****  0
   21 C16       -1.6584     2.8761     0.0002 C.3        1 ****  0
   22 O6        -2.2743     1.5206     0.0002 O.3        1 ****  0
   23 C17       -1.1895     0.6950     0.0000 C.ar       1 ****  0
   24 C18       -1.2222    -0.6915    -0.0001 C.ar       1 ****  0
   25 C19       -0.0086    -1.3742    -0.0003 C.ar       1 ****  0
   26 H1         4.9820    -2.2381     0.8253 H          1 ****  0
   27 H2         6.2389     0.3426    -0.2989 H          1 ****  0
   28 H3         6.0870    -0.0314     1.4380 H          1 ****  0
   29 H4         6.5815    -3.1765     0.5891 H          1 ****  0
   30 H5         8.7522    -4.3937     0.6858 H          1 ****  0
   31 H6        10.8934    -3.1327     0.5396 H          1 ****  0
   32 H7        10.8655    -0.6546     0.2963 H          1 ****  0
   33 H8         8.6960     0.5622     0.1997 H          1 ****  0
   34 H9         3.7229    -2.2211     1.6784 H          1 ****  0
   35 H10        2.4605    -2.2230     0.7751 H          1 ****  0
   36 H11        2.6366    -1.9297    -0.9736 H          1 ****  0
   37 H12        2.1629     1.2711    -0.0001 H          1 ****  0
   38 H13       -1.9761     3.4241    -0.8991 H          1 ****  0
   39 H14       -1.9750     3.4238     0.9001 H          1 ****  0
   40 H15       -2.1782    -1.2356    -0.0001 H          1 ****  0
   41 H16       -0.0031    -2.4742    -0.0004 H          1 ****  0
@<TRIPOS>BOND
    1     1     2 1
    2     1     5 1
    3     1    12 1
    4     1    26 1
    5     2     3 ar
    6     2     4 ar
    7     5     6 1
    8     5    27 1
    9     5    28 1
   10     6     7 ar
   11     6    11 ar
   12     7     8 ar
   13     7    29 1
   14     8     9 ar
   15     8    30 1
   16     9    10 ar
   17     9    31 1
   18    10    11 ar
   19    10    32 1
   20    11    33 1
   21    12    13 1
   22    12    16 1
   23    12    34 1
   24    13    14 ar
   25    13    15 ar
   26    16    17 1
   27    16    35 1
   28    16    36 1
   29    17    18 ar
   30    17    25 ar
   31    18    19 ar
   32    18    37 1
   33    19    20 1
   34    19    23 ar
   35    20    21 1
   36    21    22 1
   37    21    38 1
   38    21    39 1
   39    22    23 1
   40    23    24 ar
   41    24    25 ar
   42    24    40 1
   43    25    41 1
@<TRIPOS>SUBSTRUCTURE
1   ****   1
@<TRIPOS>MOLECULE
1jla
51  53  1  0  0
SMALL
FORMAL_CHARGES
@<TRIPOS>ATOM
    1 C1         3.8724    -0.3345     1.2356 C.ar       1 ****  0
    2 C2         3.7351     1.0768     1.3151 C.ar       1 ****  0
    3 C3         4.7913     1.8674     1.6944 C.ar       1 ****  0
    4 C4         6.0039     1.2838     2.0844 C.ar       1 ****  0
    5 C5         6.1172    -0.0865     2.1005 C.ar       1 ****  0
    6 C6         5.0484    -0.8861     1.6490 C.ar       1 ****  0
    7 C7         1.3945    -0.6762     0.1067 C.2        1 ****  0
    8 N1         1.3308     0.6878    -0.3697 N.am       1 ****  0
    9 C8         0.1139     1.3977    -0.2906 C.2        1 ****  0
   10 O1         0.0916     2.6269    -0.4180 O.2        1 ****  0
   11 N2        -1.0689     0.7097    -0.1678 N.am       1 ****  0
   12 C9        -1.0545    -0.6622    -0.1547 C.2        1 ****  0
   13 O2        -2.1448    -1.2488    -0.1280 O.2        1 ****  0
   14 C10        0.2287    -1.4022     0.0841 C.2        1 ****  0
   15 C11        2.7810    -1.2698     0.5679 C.3        1 ****  0
   16 C12        0.0565    -2.9768     0.3100 C.3        1 ****  0
   17 C13        1.3149    -3.8788     0.3103 C.3        1 ****  0
   18 C14       -0.7682    -3.5244    -0.8895 C.3        1 ****  0
   19 C15        2.4392     1.2453    -1.2435 C.3        1 ****  0
   20 O3         3.4656     0.2088    -1.5834 O.3        1 ****  0
   21 C16        4.7799     0.7872    -1.8935 C.3        1 ****  0
   22 C17        5.9679    -0.1117    -1.4160 C.ar       1 ****  0
   23 C18        5.8304    -1.4695    -1.2048 C.ar       1 ****  0
   24 C19        6.9044    -2.2277    -0.7156 C.ar       1 ****  0
   25 C20        8.1220    -1.6241    -0.4536 C.ar       1 ****  0
   26 C21        8.2755    -0.2572    -0.6886 C.ar       1 ****  0
   27 C22        7.2111     0.4912    -1.1585 C.ar       1 ****  0
   28 H1         2.7957     1.5301     1.0762 H          1 ****  0
   29 H2         4.6883     2.9324     1.6922 H          1 ****  0
   30 H3         6.8332     1.8981     2.3669 H          1 ****  0
   31 H4         7.0164    -0.5453     2.4555 H          1 ****  0
   32 H5         5.1624    -1.9499     1.6303 H          1 ****  0
   33 H6        -1.9410     1.2002    -0.1344 H          1 ****  0
   34 H7         2.5791    -2.1245     1.2637 H          1 ****  0
   35 H8         3.2515    -1.7826    -0.3139 H          1 ****  0
   36 H9        -0.5134    -3.1531     1.2253 H          1 ****  0
   37 H10        1.9627    -3.4390     1.0749 H          1 ****  0
   38 H11        1.7988    -3.6683    -0.6484 H          1 ****  0
   39 H12        1.1194    -4.8408     0.4569 H          1 ****  0
   40 H13       -0.2541    -3.3617    -1.8075 H          1 ****  0
   41 H14       -1.7319    -3.0732    -0.9230 H          1 ****  0
   42 H15       -0.8995    -4.6022    -0.7574 H          1 ****  0
   43 H16        2.0100     1.6341    -2.1592 H          1 ****  0
   44 H17        2.9203     2.0652    -0.7297 H          1 ****  0
   45 H18        4.8593     1.7604    -1.4232 H          1 ****  0
   46 H19        4.8566     0.9388    -2.9668 H          1 ****  0
   47 H20        4.8966    -1.9473    -1.4161 H          1 ****  0
   48 H21        6.7818    -3.2767    -0.5442 H          1 ****  0
   49 H22        8.9393    -2.2011    -0.0740 H          1 ****  0
   50 H23        9.2188     0.2133    -0.5048 H          1 ****  0
   51 H24        7.3356     1.5403    -1.3278 H          1 ****  0
@<TRIPOS>BOND
    1     1     2 ar
    2     1     6 ar
    3     1    15 1
    4     2     3 ar
    5     2    28 1
    6     3     4 ar
    7     3    29 1
    8     4     5 ar
    9     4    30 1
   10     5     6 ar
   11     5    31 1
   12     6    32 1
   13     7     8 1
   14     7    14 2
   15     7    15 1
   16     8     9 am
   17     8    19 1
   18     9    10 2
   19     9    11 am
   20    11    12 am
   21    11    33 1
   22    12    13 2
   23    12    14 1
   24    14    16 1
   25    15    34 1
   26    15    35 1
   27    16    17 1
   28    16    18 1
   29    16    36 1
   30    17    37 1
   31    17    38 1
   32    17    39 1
   33    18    40 1
   34    18    41 1
   35    18    42 1
   36    19    20 1
   37    19    43 1
   38    19    44 1
   39    20    21 1
   40    21    22 1
   41    21    45 1
   42    21    46 1
   43    22    23 ar
   44    22    27 ar
   45    23    24 ar
   46    23    47 1
   47    24    25 ar
   48    24    48 1
   49    25    26 ar
   50    25    49 1
   51    26    27 ar
   52    26    50 1
   53    27    51 1
@<TRIPOS>SUBSTRUCTURE
1   ****   1
@<TRIPOS>MOLECULE
1k3u
33  34  1  0  0
SMALL
FORMAL_CHARGES
@<TRIPOS>ATOM
    1 O1        10.4844    -4.0753    -0.2083 O.co2      1 ****  -0.50
    2 C1         9.2637    -4.2611    -0.1415 C.2        1 ****  0.0000
    3 O2         8.7719    -5.5286    -0.1556 O.co2      1 ****  -0.50
    4 C2         8.3282    -3.0836    -0.0160 C.3        1 ****  0
    5 C3         7.0981    -2.8029    -0.9331 C.3        1 ****  0
    6 C4         6.6768    -4.1386    -1.5319 C.2        1 ****  0.0000
    7 O3         6.9500    -3.4671    -2.5329 O.co2      1 ****  -0.50
    8 O4         6.1951    -5.3995    -1.6699 O.co2      1 ****  -0.50
    9 N1         5.9980    -2.4132    -0.0312 N.am       1 ****  0
   10 C5         4.6082    -2.5909    -0.0521 C.2        1 ****  0
   11 O5         4.1568    -3.7387    -0.1201 O.2        1 ****  0
   12 C6         3.6979    -1.3602    -0.0006 C.3        1 ****  0
   13 C7         2.1948    -1.6294    -0.0003 C.ar       1 ****  0
   14 C8         1.5774    -2.8788    -0.0005 C.ar       1 ****  0
   15 N2         0.2498    -2.6903    -0.0005 N.ar       1 ****  0
   16 C9         1.1896    -0.6875    -0.0002 C.ar       1 ****  0
   17 C10        1.2497     0.6954     0.0001 C.ar       1 ****  0
   18 C11        0.0081    -1.3810    -0.0003 C.ar       1 ****  0
   19 C12       -1.2118    -0.7249    -0.0002 C.ar       1 ****  0
   20 C13       -1.1814     0.6696    -0.0000 C.ar       1 ****  0
   21 C14        0.0296     1.3697     0.0001 C.ar       1 ****  0
   22 H1         8.4629    -2.6132     0.9691 H          1 ****  0
   23 H2         8.5562    -2.3492    -0.8025 H          1 ****  0
   24 H3         7.3306    -2.0523    -1.7029 H          1 ****  0
   25 H4         6.3970    -1.4700     0.0782 H          1 ****  0
   26 H5         3.9345    -0.7149    -0.8595 H          1 ****  0
   27 H6         3.9470    -0.7806     0.9005 H          1 ****  0
   28 H7         2.0906    -3.8517    -0.0006 H          1 ****  0
   29 H8        -0.4633    -3.4336    -0.0006 H          1 ****  0
   30 H9         2.2091     1.2336     0.0002 H          1 ****  0
   31 H10       -2.1621    -1.2788    -0.0003 H          1 ****  0
   32 H11       -2.1282     1.2296     0.0001 H          1 ****  0
   33 H12        0.0189     2.4697     0.0003 H          1 ****  0
@<TRIPOS>BOND
    1     1     2 ar
    2     2     3 ar
    3     2     4 1
    4     4     5 1
    5     4    22 1
    6     4    23 1
    7     5     6 1
    8     5     9 1
    9     5    24 1
   10     6     7 ar
   11     6     8 ar
   12     9    10 am
   13     9    25 1
   14    10    11 2
   15    10    12 1
   16    12    13 1
   17    12    26 1
   18    12    27 1
   19    13    14 ar
   20    13    16 ar
   21    14    15 ar
   22    14    28 1
   23    15    18 ar
   24    15    29 1
   25    16    17 ar
   26    16    18 ar
   27    17    21 ar
   28    17    30 1
   29    18    19 ar
   30    19    20 ar
   31    19    31 1
   32    20    21 ar
   33    20    32 1
   34    21    33 1
@<TRIPOS>SUBSTRUCTURE
1   ****   1
@<TRIPOS>MOLECULE
1ke5
38  40  1  0  0
SMALL
FORMAL_CHARGES
@<TRIPOS>ATOM
    1 N1        -2.3109    -1.6269    -0.0002 N.am       1 ****  0
    2 C1        -1.7423    -2.9328    -0.0004 C.2        1 ****  0
    3 C2        -0.2946    -2.8141    -0.0005 C.2        1 ****  0
    4 C3         1.2135    -0.7671    -0.0003 C.ar       1 ****  0
    5 C4         1.1910     0.6264    -0.0000 C.ar       1 ****  0
    6 C5        -0.0184     1.3276     0.0001 C.ar       1 ****  0
    7 C6        -1.2411     0.6579     0.0001 C.ar       1 ****  0
    8 C7        -1.2077    -0.7279    -0.0001 C.ar       1 ****  0
    9 C8        -0.0121    -1.4141    -0.0003 C.ar       1 ****  0
   10 O1        -2.3777    -3.9912    -0.0006 O.2        1 ****  0
   11 C9         0.5863    -3.8085    -0.0007 C.2        1 ****  0
   12 N2         0.1232    -5.1636    -0.0009 N.pl3      1 ****  0
   13 C10        1.2350    -6.0698    -0.0011 C.ar       1 ****  0
   14 C11        2.5369    -5.5836    -0.0010 C.ar       1 ****  0
   15 C12        3.6086    -6.4683    -0.0012 C.ar       1 ****  0
   16 C13        3.3778    -7.8389    -0.0014 C.ar       1 ****  0
   17 C14        2.0758    -8.3251    -0.0014 C.ar       1 ****  0
   18 C15        1.0040    -7.4403    -0.0013 C.ar       1 ****  0
   19 S1         4.7399    -8.9629    -0.0018 S.O2       1 ****  0
   20 O2         4.6184    -9.9035    -1.1852 O.2        1 ****  0
   21 O3         4.7237    -9.7735     1.2799 O.2        1 ****  0
   22 N3         6.2052    -8.1008    -0.1088 N.am       1 ****  0
   23 C16        7.4505    -8.8129    -0.1304 C.3        1 ****  0
   24 H1        -3.3118    -1.3839    -0.0001 H          1 ****  0
   25 H2         2.1601    -1.3274    -0.0004 H          1 ****  0
   26 H3         2.1397     1.1832    -0.0000 H          1 ****  0
   27 H4        -0.0050     2.4275     0.0003 H          1 ****  0
   28 H5        -2.1941     1.2072     0.0002 H          1 ****  0
   29 H6         1.6648    -3.5923    -0.0007 H          1 ****  0
   30 H7        -0.8670    -5.4471    -0.0009 H          1 ****  0
   31 H8         2.7191    -4.4988    -0.0009 H          1 ****  0
   32 H9         4.6393    -6.0840    -0.0011 H          1 ****  0
   33 H10        1.8937    -9.4099    -0.0016 H          1 ****  0
   34 H11       -0.0267    -7.8246    -0.0013 H          1 ****  0
   35 H12        6.1972    -7.0720    -0.1578 H          1 ****  0
   36 H13        7.3542    -9.5105    -0.9755 H          1 ****  0
   37 H14        7.4330    -9.4261     0.7826 H          1 ****  0
   38 H15        8.3486    -8.1816    -0.2009 H          1 ****  0
@<TRIPOS>BOND
    1     1     2 am
    2     1     8 1
    3     1    24 1
    4     2     3 1
    5     2    10 2
    6     3     9 1
    7     3    11 2
    8     4     5 ar
    9     4     9 ar
   10     4    25 1
   11     5     6 ar
   12     5    26 1
   13     6     7 ar
   14     6    27 1
   15     7     8 ar
   16     7    28 1
   17     8     9 ar
   18    11    12 1
   19    11    29 1
   20    12    13 1
   21    12    30 1
   22    13    14 ar
   23    13    18 ar
   24    14    15 ar
   25    14    31 1
   26    15    16 ar
   27    15    32 1
   28    16    17 ar
   29    16    19 1
   30    17    18 ar
   31    17    33 1
   32    18    34 1
   33    19    20 2
   34    19    21 2
   35    19    22 am
   36    22    23 1
   37    22    35 1
   38    23    36 1
   39    23    37 1
   40    23    38 1
@<TRIPOS>SUBSTRUCTURE
1   ****   1
@<TRIPOS>MOLECULE
1kzk
78  81  1  0  0
SMALL
FORMAL_CHARGES
@<TRIPOS>ATOM
    1 C1         1.2135    -0.7116    -0.0001 C.ar       1 ****  0
    2 O1         2.4146    -1.4082    -0.0001 O.3        1 ****  0
    3 C2         1.2162     0.6780     0.0001 C.ar       1 ****  0
    4 C3         0.0140     1.3751     0.0001 C.ar       1 ****  0
    5 C4        -1.1908     0.6826    -0.0001 C.ar       1 ****  0
    6 C5        -1.1938    -0.7071    -0.0003 C.ar       1 ****  0
    7 C6         0.0087    -1.4044    -0.0003 C.ar       1 ****  0
    8 C7         0.0087    -2.9025    -0.0005 C.3        1 ****  0
    9 C8        -2.4604    -1.4319     0.0002 C.2        1 ****  0
   10 O2        -2.4619    -2.6679    -0.0061 O.2        1 ****  0
   11 N1        -3.6675    -0.7228    -0.0001 N.am       1 ****  0
   12 C9        -4.8657    -0.6430    -0.9261 C.3        1 ****  0
   13 C10       -4.9973    -2.1793    -1.5215 C.3        1 ****  0
   14 C11       -4.7887    -1.3403    -2.7851 C.ar       1 ****  0
   15 C12       -4.1624    -0.1002    -2.7488 C.ar       1 ****  0
   16 C13       -3.8838     0.5746    -3.9323 C.ar       1 ****  0
   17 C14       -4.2311     0.0085    -5.1525 C.ar       1 ****  0
   18 C15       -4.8572    -1.2324    -5.1907 C.ar       1 ****  0
   19 C16       -5.1356    -1.9065    -4.0083 C.ar       1 ****  0
   20 C17       -6.2509    -0.9161    -0.8925 C.3        1 ****  0
   21 O3        -6.1627     0.6101    -0.8266 O.3        1 ****  0
   22 C18       -7.4356    -1.2607     0.0904 C.2        1 ****  0
   23 O4        -7.3970    -2.4957     0.1318 O.2        1 ****  0
   24 N2        -8.6975    -0.6235     0.0866 N.am       1 ****  0
   25 C19       -8.8359     0.8326     0.1755 C.3        1 ****  0
   26 S1       -10.6198     1.0151     0.2459 S.3        1 ****  0
   27 C20      -10.9149    -0.6044     0.8846 C.3        1 ****  0
   28 C21      -10.4904    -0.6450     2.3630 C.3        1 ****  0
   29 C22      -12.3716    -1.0772     0.7510 C.3        1 ****  0
   30 C23       -9.9203    -1.4317     0.0459 C.3        1 ****  0
   31 C24      -10.3879    -1.4460    -1.3864 C.2        1 ****  0
   32 O5       -10.5837    -2.5246    -1.9568 O.2        1 ****  0
   33 N3       -10.6035    -0.2498    -2.0770 N.am       1 ****  0
   34 C25      -11.0487    -0.3019    -3.4422 C.3        1 ****  0
   35 C26      -11.2189     1.0837    -3.9963 C.ar       1 ****  0
   36 C27      -11.6415     1.2573    -5.3090 C.ar       1 ****  0
   37 C28      -11.7995     2.5383    -5.8242 C.ar       1 ****  0
   38 C29      -11.5350     3.6454    -5.0269 C.ar       1 ****  0
   39 C30      -11.1125     3.4717    -3.7144 C.ar       1 ****  0
   40 C31      -10.9544     2.1908    -3.1990 C.ar       1 ****  0
   41 C32      -11.9273     0.0654    -6.1703 C.3        1 ****  0
   42 H1         2.9013    -1.0779     0.7962 H          1 ****  0
   43 H2         2.1698     1.2262     0.0003 H          1 ****  0
   44 H3         0.0160     2.4751     0.0003 H          1 ****  0
   45 H4        -2.1424     1.2345    -0.0001 H          1 ****  0
   46 H5         0.5954    -3.1887     0.8848 H          1 ****  0
   47 H6         0.5956    -3.1885    -0.8858 H          1 ****  0
   48 H7        -0.9971    -3.3479    -0.0006 H          1 ****  0
   49 H8        -3.6599     0.3018     0.1054 H          1 ****  0
   50 H9        -4.8134     0.1316    -1.7054 H          1 ****  0
   51 H10       -5.9787    -2.6711    -1.5918 H          1 ****  0
   52 H11       -4.2500    -2.9865    -1.5156 H          1 ****  0
   53 H12       -3.8869     0.3481    -1.7828 H          1 ****  0
   54 H13       -3.3885     1.5563    -3.9024 H          1 ****  0
   55 H14       -4.0108     0.5421    -6.0888 H          1 ****  0
   56 H15       -5.1321    -1.6803    -6.1570 H          1 ****  0
   57 H16       -5.6304    -2.8885    -4.0388 H          1 ****  0
   58 H17       -6.3688    -1.3615    -1.8913 H          1 ****  0
   59 H18       -6.2193     0.2347    -1.7409 H          1 ****  0
   60 H19       -8.4454     1.3198    -0.7301 H          1 ****  0
   61 H20       -8.3837     1.2128     1.1034 H          1 ****  0
   62 H21      -11.0767     0.0864     2.9386 H          1 ****  0
   63 H22       -9.4196    -0.4086     2.4491 H          1 ****  0
   64 H23      -10.6724    -1.6524     2.7655 H          1 ****  0
   65 H24      -12.6288    -1.0424    -0.3179 H          1 ****  0
   66 H25      -13.0014    -0.3453     1.2778 H          1 ****  0
   67 H26      -12.5145    -2.0885     1.1594 H          1 ****  0
   68 H27       -9.8040    -2.4637     0.4085 H          1 ****  0
   69 H28      -10.4455     0.6564    -1.6136 H          1 ****  0
   70 H29      -12.0104    -0.8337    -3.4920 H          1 ****  0
   71 H30      -10.3075    -0.8462    -4.0458 H          1 ****  0
   72 H31      -12.1340     2.6759    -6.8630 H          1 ****  0
   73 H32      -11.6601     4.6593    -5.4348 H          1 ****  0
   74 H33      -10.9031     4.3481    -3.0835 H          1 ****  0
   75 H34      -10.6200     2.0533    -2.1601 H          1 ****  0
   76 H35      -12.6822    -0.5117    -5.6160 H          1 ****  0
   77 H36      -10.9978    -0.5227    -6.1598 H          1 ****  0
   78 H37      -12.2547     0.3185    -7.1895 H          1 ****  0
@<TRIPOS>BOND
    1     1     2 1
    2     1     3 ar
    3     1     7 ar
    4     2    42 1
    5     3     4 ar
    6     3    43 1
    7     4     5 ar
    8     4    44 1
    9     5     6 ar
   10     5    45 1
   11     6     7 ar
   12     6     9 1
   13     7     8 1
   14     8    46 1
   15     8    47 1
   16     8    48 1
   17     9    10 2
   18     9    11 am
   19    11    49 1
   20    12    11 1
   21    12    13 1
   22    12    20 1
   23    12    50 1
   24    13    14 1
   25    13    51 1
   26    13    52 1
   27    14    15 ar
   28    14    19 ar
   29    15    16 ar
   30    15    53 1
   31    16    17 ar
   32    16    54 1
   33    17    18 ar
   34    17    55 1
   35    18    19 ar
   36    18    56 1
   37    19    57 1
   38    20    21 1
   39    20    22 1
   40    20    58 1
   41    21    59 1
   42    22    23 2
   43    22    24 am
   44    24    25 1
   45    24    30 1
   46    25    26 1
   47    25    60 1
   48    25    61 1
   49    26    27 1
   50    27    28 1
   51    27    29 1
   52    27    30 1
   53    28    62 1
   54    28    63 1
   55    28    64 1
   56    29    65 1
   57    29    66 1
   58    29    67 1
   59    30    31 1
   60    30    68 1
   61    31    32 2
   62    31    33 am
   63    33    34 1
   64    33    69 1
   65    34    35 1
   66    34    70 1
   67    34    71 1
   68    35    36 ar
   69    35    40 ar
   70    36    37 ar
   71    36    41 1
   72    37    38 ar
   73    37    72 1
   74    38    39 ar
   75    38    73 1
   76    39    40 ar
   77    39    74 1
   78    40    75 1
   79    41    76 1
   80    41    77 1
   81    41    78 1
@<TRIPOS>SUBSTRUCTURE
1   ****   1
@<TRIPOS>MOLECULE
1l2s
26  27  1  0  0
SMALL
FORMAL_CHARGES
@<TRIPOS>ATOM
    1 N1         2.4468    -1.4131    -0.0002 N.am       1 ****  0
    2 C1         1.2331    -0.7123    -0.0001 C.ar       1 ****  0
    3 C2         1.2337     0.6775     0.0001 C.ar       1 ****  0
    4 C3         0.0297    -1.4074    -0.0003 C.ar       1 ****  0
    5 C4         0.0303     1.3726     0.0001 C.ar       1 ****  0
    6 C5        -1.1738    -0.7124    -0.0003 C.ar       1 ****  0
    7 C6        -1.1732     0.6774    -0.0001 C.ar       1 ****  0
    8 Cl1       -2.6600     1.5362    -0.0001 Cl         1 ****  0
    9 S1         3.9336    -0.5726     0.0231 S.O2       1 ****  0
   10 C7         5.2782    -1.7228    -0.0071 C.ar       1 ****  0
   11 O1         4.0298     0.3360    -1.1880 O.2        1 ****  0
   12 O2         4.0247     0.2649     1.2848 O.2        1 ****  0
   13 C8         6.6004    -1.3307    -0.0616 C.ar       1 ****  0
   14 C9         5.1047    -3.0980     0.0227 C.ar       1 ****  0
   15 S2         7.6055    -2.6728    -0.0749 S.3        1 ****  0
   16 C10        7.0656     0.0544    -0.1020 C.2        1 ****  0.0000
   17 C11        6.3288    -3.7676    -0.0100 C.ar       1 ****  0
   18 O3         8.2767     0.2983    -0.1498 O.co2      1 ****  -0.50
   19 O4         6.1678     1.0739    -0.0872 O.co2      1 ****  -0.50
   20 H1         2.4422    -2.4430    -0.0145 H          1 ****  0
   21 H2         2.1865     1.2273     0.0003 H          1 ****  0
   22 H3         0.0297    -2.5074    -0.0004 H          1 ****  0
   23 H4         0.0303     2.4726     0.0003 H          1 ****  0
   24 H5        -2.1266    -1.2621    -0.0004 H          1 ****  0
   25 H6         4.1260    -3.5982     0.0666 H          1 ****  0
   26 H7         6.4435    -4.8615     0.0045 H          1 ****  0
@<TRIPOS>BOND
    1     1     2 1
    2     1     9 am
    3     1    20 1
    4     2     3 ar
    5     2     4 ar
    6     3     5 ar
    7     3    21 1
    8     4     6 ar
    9     4    22 1
   10     5     7 ar
   11     5    23 1
   12     6     7 ar
   13     6    24 1
   14     7     8 1
   15     9    10 1
   16     9    11 2
   17     9    12 2
   18    10    13 ar
   19    10    14 ar
   20    13    15 ar
   21    13    16 1
   22    14    17 ar
   23    14    25 1
   24    15    17 ar
   25    16    18 ar
   26    16    19 ar
   27    17    26 1
@<TRIPOS>SUBSTRUCTURE
1   ****   1
@<TRIPOS>MOLECULE
1l7f
51  51  1  0  0
SMALL
FORMAL_CHARGES
@<TRIPOS>ATOM
    1 C1         0.5867    -1.0286    -0.2384 C.3        1 ****  0
    2 N1         0.6760    -1.5939    -1.6646 N.3        1 ****  0
    3 C2        -0.1048    -1.2458    -2.8979 C.2        1 ****  0
    4 N2         0.3482    -1.6939    -4.0051 N.2        1 ****  1
    5 N3        -1.3174    -0.4423    -2.9697 N.3        1 ****  0
    6 C3         1.1802     0.3921    -0.9767 C.3        1 ****  0
    7 C4         2.0340     1.4765    -0.9824 C.3        1 ****  0
    8 C5         2.1693     0.3248    -1.9406 C.3        1 ****  0
    9 C6         2.2353     1.4951    -3.0524 C.3        1 ****  0
   10 C7         2.2437     3.0192    -2.8504 C.3        1 ****  0
   11 C8         3.3047    -0.6885    -2.5596 C.3        1 ****  0
   12 C9         4.3811    -1.4619    -1.7647 C.3        1 ****  0
   13 N4         2.9569     2.2435    -0.0507 N.am       1 ****  0
   14 C10        4.2387     2.8494     0.0329 C.2        1 ****  0
   15 C11        5.5214     2.0566    -0.0430 C.3        1 ****  0
   16 O1         4.3019     4.0742     0.1849 O.2        1 ****  0
   17 C12       -0.0542     0.4179    -0.6091 C.3        1 ****  0
   18 O2        -0.1138     1.5951    -1.5058 O.3        1 ****  0
   19 C13       -0.1063     0.2164     0.8184 C.3        1 ****  0
   20 C14       -0.9567     0.7052     2.0818 C.2        1 ****  0.0000
   21 O3        -0.0559     0.1170     2.6893 O.co2      1 ****  -0.50
   22 O4        -1.9285     1.3395     2.7922 O.co2      1 ****  -0.50
   23 C15       -0.9295    -0.8530     0.1203 C.3        1 ****  0
   24 H1         1.0771    -1.7794     0.4005 H          1 ****  0
   25 H2         1.5114    -2.1252    -1.8471 H          1 ****  0
   26 H3         1.1771    -2.2385    -4.0128 H          1 ****  0
   27 H4        -0.1217    -1.4777    -4.8512 H          1 ****  0
   28 H5        -1.7388    -0.0377    -2.1342 H          1 ****  0
   29 H6        -1.7368    -0.2448    -3.8861 H          1 ****  0
   30 H7         1.1113     0.3432    -2.0558 H          1 ****  0
   31 H8         1.3098     2.1017    -1.5129 H          1 ****  0
   32 H9         1.1747    -0.1010    -1.8255 H          1 ****  0
   33 H10        1.2220     1.1281    -2.9377 H          1 ****  0
   34 H11        2.5487     1.2695    -4.0681 H          1 ****  0
   35 H12        3.2587     3.3603    -2.9666 H          1 ****  0
   36 H13        1.9336     3.2180    -1.8382 H          1 ****  0
   37 H14        1.6102     3.4904    -3.5350 H          1 ****  0
   38 H15        3.5738    -0.6766    -3.6030 H          1 ****  0
   39 H16        2.3558    -1.1957    -2.4608 H          1 ****  0
   40 H17        4.1021    -1.4657    -0.7279 H          1 ****  0
   41 H18        5.3176    -0.9472    -1.8694 H          1 ****  0
   42 H19        4.4640    -2.4516    -2.1261 H          1 ****  0
   43 H20        2.1681     2.8174     0.0896 H          1 ****  0
   44 H21        5.4110     1.5026    -0.9863 H          1 ****  0
   45 H22        5.3914     1.3048     0.7486 H          1 ****  0
   46 H23        6.3367     2.5866     0.0267 H          1 ****  0
   47 H24       -0.1966    -0.5751    -1.0522 H          1 ****  0
   48 H25       -0.0441     0.8015    -1.9191 H          1 ****  0
   49 H26        0.8747    -0.2068     1.0738 H          1 ****  0
   50 H27       -1.1833    -1.4895     0.9201 H          1 ****  0
   51 H28       -1.5223    -1.0359    -0.7344 H          1 ****  0
@<TRIPOS>BOND
    1     1     2 1
    2     1    23 1
    3     1    24 1
    4     2     3 1
    5     2    25 1
    6     3     4 2
    7     3     5 1
    8     4    26 1
    9     4    27 1
   10     5    28 1
   11     5    29 1
   12     6     1 1
   13     6     7 1
   14     6    17 1
   15     6    30 1
   16     7     8 1
   17     7    13 1
   18     7    31 1
   19     8     9 1
   20     8    11 1
   21     8    32 1
   22     9    10 1
   23     9    33 1
   24     9    34 1
   25    10    35 1
   26    10    36 1
   27    10    37 1
   28    11    12 1
   29    11    38 1
   30    11    39 1
   31    12    40 1
   32    12    41 1
   33    12    42 1
   34    13    14 am
   35    13    43 1
   36    14    15 1
   37    14    16 2
   38    15    44 1
   39    15    45 1
   40    15    46 1
   41    17    18 1
   42    17    19 1
   43    17    47 1
   44    18    48 1
   45    19    20 1
   46    19    23 1
   47    19    49 1
   48    20    21 ar
   49    20    22 ar
   50    23    50 1
   51    23    51 1
@<TRIPOS>SUBSTRUCTURE
1   ****   1
@<TRIPOS>MOLECULE
1lpz
55  58  1  0  0
SMALL
FORMAL_CHARGES
@<TRIPOS>ATOM
    1 C1         1.3064    -0.4700    -0.0012 C.ar       1 ****  0
    2 C2         1.2257     0.9247     0.0020 C.ar       1 ****  0
    3 C3        -0.0393     1.4948    -0.0004 C.ar       1 ****  0
    4 C4        -1.1563     0.7012    -0.0064 C.ar       1 ****  0
    5 C5        -1.1018    -0.6806    -0.0060 C.ar       1 ****  0
    6 C6         0.1590    -1.2694    -0.0039 C.ar       1 ****  0
    7 N1        -0.3776     2.7859     0.0076 N.ar       1 ****  0
    8 C7        -1.7464     2.8112     0.0088 C.ar       1 ****  0
    9 C8        -2.2622     1.5160    -0.0051 C.ar       1 ****  0
   10 C9        -2.3579    -1.5085    -0.0059 C.3        1 ****  0
   11 C10       -2.7464     3.9106     0.0423 C.2        1 ****  0
   12 N2        -4.0432     3.7628    -0.0202 N.am       1 ****  0
   13 C11       -4.6950     5.0431    -0.0143 C.3        1 ****  0
   14 C12       -6.1201     5.0158    -0.0059 C.ar       1 ****  0
   15 C13        0.8125     3.8656     0.0088 C.3        1 ****  0
   16 C14        0.7110     5.4564    -0.0240 C.ar       1 ****  0
   17 C15       -0.5054     6.0755    -0.0807 C.ar       1 ****  0
   18 C16       -0.7292     7.4343    -0.0598 C.ar       1 ****  0
   19 C17        0.3689     8.2533    -0.0215 C.ar       1 ****  0
   20 C18        1.6351     7.6929     0.0029 C.ar       1 ****  0
   21 C19        1.8222     6.3011     0.0134 C.ar       1 ****  0
   22 C20       -6.7932     3.8091    -0.0032 C.ar       1 ****  0
   23 C21       -8.1762     3.8056     0.0002 C.ar       1 ****  0
   24 C22       -8.8767     5.0076     0.0018 C.ar       1 ****  0
   25 C23       -8.1910     6.2175     0.0004 C.ar       1 ****  0
   26 C24       -6.8057     6.2212    -0.0036 C.ar       1 ****  0
   27 C25        2.7430     8.6273     0.0086 C.2        1 ****  0
   28 N3         2.5222     9.8885     0.0068 N.2        1 ****  1
   29 Cl1       -9.0018     2.3063     0.0015 Cl         1 ****  0
   30 Cl2       -9.0468     7.7084     0.0014 Cl         1 ****  0
   31 O1        -2.5016     5.0621     0.1930 O.2        1 ****  0
   32 N4         4.0691     8.1530     0.0093 N.3        1 ****  0
   33 H1         2.2688    -0.9376    -0.0016 H          1 ****  0
   34 H2         2.1072     1.5311     0.0061 H          1 ****  0
   35 H3         0.2507    -2.3355    -0.0044 H          1 ****  0
   36 H4        -3.2910     1.2220    -0.0131 H          1 ****  0
   37 H5        -2.9085    -1.1451    -0.8791 H          1 ****  0
   38 H6        -2.9086    -1.1447     0.8671 H          1 ****  0
   39 H7        -2.1988    -2.4835    -0.0056 H          1 ****  0
   40 H8        -4.5041     2.8880    -0.0484 H          1 ****  0
   41 H9        -4.3609     5.6130    -0.8884 H          1 ****  0
   42 H10       -4.3494     5.6107     0.8603 H          1 ****  0
   43 H11        1.5115     3.5944     0.9032 H          1 ****  0
   44 H12        1.5435     3.5614    -0.8449 H          1 ****  0
   45 H13       -1.3668     5.4444    -0.1477 H          1 ****  0
   46 H14       -1.7213     7.8347    -0.0729 H          1 ****  0
   47 H15        0.2490     9.3165    -0.0105 H          1 ****  0
   48 H16        2.8096     5.8906     0.0500 H          1 ****  0
   49 H17       -6.2502     2.8871    -0.0038 H          1 ****  0
   50 H18       -9.9467     5.0011     0.0041 H          1 ****  0
   51 H19       -6.2690     7.1468    -0.0051 H          1 ****  0
   52 H20        3.2725    10.5471     0.0081 H          1 ****  0
   53 H21        1.5941    10.2207     0.0050 H          1 ****  0
   54 H22        4.2566     7.1447     0.0057 H          1 ****  0
   55 H23        4.8435     8.8220     0.0076 H          1 ****  0
@<TRIPOS>BOND
    1     1     2 ar
    2     1     6 ar
    3     1    33 1
    4     2     3 ar
    5     2    34 1
    6     3     4 ar
    7     3     7 ar
    8     4     5 ar
    9     4     9 ar
   10     5     6 ar
   11     5    10 1
   12     6    35 1
   13     7     8 ar
   14     7    15 1
   15     8     9 ar
   16     8    11 1
   17     9    36 1
   18    10    37 1
   19    10    38 1
   20    10    39 1
   21    11    12 am
   22    11    31 2
   23    12    13 1
   24    12    40 1
   25    13    14 1
   26    13    41 1
   27    13    42 1
   28    14    22 ar
   29    14    26 ar
   30    15    16 1
   31    15    43 1
   32    15    44 1
   33    16    17 ar
   34    16    21 ar
   35    17    18 ar
   36    17    45 1
   37    18    19 ar
   38    18    46 1
   39    19    20 ar
   40    19    47 1
   41    20    21 ar
   42    20    27 1
   43    21    48 1
   44    22    23 ar
   45    22    49 1
   46    23    24 ar
   47    23    29 1
   48    24    25 ar
   49    24    50 1
   50    25    26 ar
   51    25    30 1
   52    26    51 1
   53    27    28 2
   54    27    32 1
   55    28    52 1
   56    28    53 1
   57    32    54 1
   58    32    55 1
@<TRIPOS>SUBSTRUCTURE
1   ****   1
@<TRIPOS>MOLECULE
1lrh
23  24  1  0  0
SMALL
FORMAL_CHARGES
@<TRIPOS>ATOM
    1 C1         1.2072    -0.6943    -0.0002 C.ar       1 ****  0
    2 C2         1.2084     0.6953     0.0000 C.ar       1 ****  0
    3 C3         0.0056     1.3911     0.0001 C.ar       1 ****  0
    4 C4        -1.1985     0.6973    -0.0000 C.ar       1 ****  0
    5 C5        -1.1998    -0.6923    -0.0003 C.ar       1 ****  0
    6 C6         0.0030    -1.3878    -0.0003 C.ar       1 ****  0
    7 C7         0.0010    -2.7774    -0.0005 C.ar       1 ****  0
    8 C8         1.2039    -3.4732    -0.0006 C.ar       1 ****  0
    9 C9         2.4082    -2.7797    -0.0004 C.ar       1 ****  0
   10 C10        2.4100    -1.3901    -0.0002 C.ar       1 ****  0
   11 C11        2.5289     1.4590     0.0001 C.3        1 ****  0
   12 C12        2.4377     2.9866     0.0006 C.2        1 ****  0.0000
   13 O1         3.4844     3.6444     0.0008 O.co2      1 ****  -0.50
   14 O2         1.2509     3.6474     0.0006 O.co2      1 ****  -0.50
   15 H1         0.0065     2.4911     0.0002 H          1 ****  0
   16 H2        -2.1506     1.2482     0.0000 H          1 ****  0
   17 H3        -2.1529    -1.2415    -0.0004 H          1 ****  0
   18 H4        -0.9522    -3.3263    -0.0007 H          1 ****  0
   19 H5         1.2028    -4.5732    -0.0008 H          1 ****  0
   20 H6         3.3602    -3.3309    -0.0004 H          1 ****  0
   21 H7         3.3633    -0.8411    -0.0001 H          1 ****  0
   22 H8         3.1103     1.1465     0.8801 H          1 ****  0
   23 H9         3.1111     1.1473    -0.8796 H          1 ****  0
@<TRIPOS>BOND
    1     1     2 ar
    2     1     6 ar
    3     1    10 ar
    4     2     3 ar
    5     2    11 1
    6     3     4 ar
    7     3    15 1
    8     4     5 ar
    9     4    16 1
   10     5     6 ar
   11     5    17 1
   12     6     7 ar
   13     7     8 ar
   14     7    18 1
   15     8     9 ar
   16     8    19 1
   17     9    10 ar
   18     9    20 1
   19    10    21 1
   20    11    12 1
   21    11    22 1
   22    11    23 1
   23    12    13 ar
   24    12    14 ar
@<TRIPOS>SUBSTRUCTURE
1   ****   1
@<TRIPOS>MOLECULE
1m2z
57  60  1  0  0
SMALL
FORMAL_CHARGES
@<TRIPOS>ATOM
    1 C1         1.2312    -0.3343    -0.0830 C.2        1 ****  0
    2 C2         1.1713     0.9901    -0.1736 C.2        1 ****  0
    3 C3        -0.1044     1.6662    -0.1935 C.2        1 ****  0
    4 C4        -1.3164     0.8884    -0.3112 C.2        1 ****  0
    5 C5        -1.2862    -0.4376    -0.2228 C.2        1 ****  0
    6 C6        -2.5716    -1.2111    -0.3601 C.3        1 ****  0
    7 C7        -2.4237    -2.2566    -1.4875 C.3        1 ****  0
    8 C8        -1.4037    -2.6138    -0.3037 C.3        1 ****  0
    9 C9         0.0895    -2.4036    -1.0002 C.3        1 ****  0
   10 C10       -0.0043    -1.1992     0.0647 C.3        1 ****  0
   11 C11        1.2526    -3.4360    -0.7486 C.3        1 ****  0
   12 C12       -2.8063    -6.9450    -0.8366 C.3        1 ****  0
   13 C13       -1.5635    -6.1126    -0.4276 C.3        1 ****  0
   14 C14       -1.5400    -4.3691    -0.1829 C.3        1 ****  0
   15 C15       -1.9949    -4.0252     1.2689 C.3        1 ****  0
   16 C16       -1.1672    -5.0287     2.1268 C.3        1 ****  0
   17 C17       -1.7847    -5.2613     0.6465 C.3        1 ****  0
   18 C18       -0.0155    -6.0865    -1.2928 C.3        1 ****  0
   19 C19       -0.0381    -1.5868     1.5544 C.3        1 ****  0
   20 C20       -1.9884    -6.9368     0.7524 C.2        1 ****  0
   21 C21       -2.6452    -7.8407     1.7536 C.3        1 ****  0
   22 C22       -1.9252    -5.5343     3.3659 C.3        1 ****  0
   23 F1         0.3323    -1.7721    -2.2052 F          1 ****  0
   24 O1        -0.1543     2.9010    -0.1988 O.2        1 ****  0
   25 O2         2.4986    -2.7766    -0.5162 O.3        1 ****  0
   26 O3        -2.7900    -4.3825     0.1468 O.3        1 ****  0
   27 O4        -2.4392    -6.8541    -0.3964 O.2        1 ****  0
   28 O5        -3.7399    -8.5213     1.1368 O.3        1 ****  0
   29 H1         2.2166    -0.8221    -0.1165 H          1 ****  0
   30 H2         2.1005     1.5757    -0.2338 H          1 ****  0
   31 H3        -2.2762     1.4000    -0.4761 H          1 ****  0
   32 H4        -3.3919    -0.5208    -0.6063 H          1 ****  0
   33 H5        -2.7947    -1.7233     0.5875 H          1 ****  0
   34 H6        -3.3525    -2.8410    -1.5641 H          1 ****  0
   35 H7        -2.2531    -1.7391    -2.4430 H          1 ****  0
   36 H8        -1.5681    -2.0115     0.6019 H          1 ****  0
   37 H9         1.3511    -4.0250    -1.6724 H          1 ****  0
   38 H10        1.7792    -5.1198     0.5458 H          1 ****  0
   39 H11        0.7074    -3.9001     1.3198 H          1 ****  0
   40 H12       -2.4173    -4.8209    -0.6688 H          1 ****  0
   41 H13       -1.7190    -2.9905     1.5205 H          1 ****  0
   42 H14       -3.0711    -4.2188     1.3887 H          1 ****  0
   43 H15       -0.2786    -4.5560     2.5705 H          1 ****  0
   44 H16        0.8314    -6.7621    -1.1020 H          1 ****  0
   45 H17        0.2466    -5.3950    -2.1071 H          1 ****  0
   46 H18       -0.8991    -6.6755    -1.5798 H          1 ****  0
   47 H19       -0.1381    -0.7021     2.2005 H          1 ****  0
   48 H20        0.8481    -2.1724     1.8403 H          1 ****  0
   49 H21       -0.9240    -2.2196     1.7117 H          1 ****  0
   50 H22       -1.9141    -8.5778     2.1171 H          1 ****  0
   51 H23       -3.0157    -7.2440     2.6002 H          1 ****  0
   52 H24       -2.8507    -6.0183     3.0206 H          1 ****  0
   53 H25       -2.1944    -4.6598     3.9764 H          1 ****  0
   54 H26       -1.3123    -6.2392     3.9468 H          1 ****  0
   55 H27        2.4009    -2.1875     0.2735 H          1 ****  0
   56 H28        0.9962    -6.4627     1.9248 H          1 ****  0
   57 H29       -3.4077    -9.0595     0.3752 H          1 ****  0
@<TRIPOS>BOND
    1     1     2 2
    2     1    10 1
    3     1    29 1
    4     2     3 1
    5     2    30 1
    6     3     4 1
    7     3    24 2
    8     4     5 2
    9     4    31 1
   10     5     6 1
   11     5    10 1
   12     6     7 1
   13     6    32 1
   14     6    33 1
   15     7    34 1
   16     7    35 1
   17     8     7 1
   18     8     9 1
   19     8    14 1
   20     8    36 1
   21     9    10 1
   22     9    11 1
   23     9    23 1
   24    10    19 1
   25    11    12 1
   26    11    25 1
   27    11    37 1
   28    12    13 1
   29    12    38 1
   30    12    39 1
   31    13    14 1
   32    13    17 1
   33    13    18 1
   34    14    15 1
   35    14    40 1
   36    15    16 1
   37    15    41 1
   38    15    42 1
   39    16    17 1
   40    16    22 1
   41    16    43 1
   42    17    20 1
   43    17    26 1
   44    18    44 1
   45    18    45 1
   46    18    46 1
   47    19    47 1
   48    19    48 1
   49    19    49 1
   50    20    21 1
   51    20    27 2
   52    21    28 1
   53    21    50 1
   54    21    51 1
   55    22    52 1
   56    22    53 1
   57    22    54 1
   58    25    55 1
   59    26    56 1
   60    28    57 1
@<TRIPOS>SUBSTRUCTURE
1   ****   1
@<TRIPOS>MOLECULE
1meh
42  43  1  0  0
SMALL
FORMAL_CHARGES
@<TRIPOS>ATOM
    1 C1         0.2380    -2.7993    -0.0403 C.2        1 ****  0
    2 C2        -2.3567     2.9700    -0.0864 C.2        1 ****  0
    3 C3        -3.4165     3.7682    -0.0253 C.2        1 ****  0
    4 C4        -3.1787     5.2515     0.0268 C.3        1 ****  0
    5 C5        -4.4964     6.0335    -0.0091 C.3        1 ****  0
    6 C6        -4.1751     7.4998     0.0051 C.2        1 ****  0.0000
    7 C7         2.7931     1.0860     0.0895 C.3        1 ****  0
    8 C8         1.2715     3.7032     0.0464 C.3        1 ****  0
    9 C9        -4.8103     3.2054    -0.0119 C.3        1 ****  0
   10 C10        2.3570    -1.8001     0.0677 C.3        1 ****  0
   11 C11        1.2404    -0.7949     0.0165 C.ar       1 ****  0
   12 C12        1.3604     0.5820     0.0236 C.ar       1 ****  0
   13 C13        0.1753     1.3598    -0.0296 C.ar       1 ****  0
   14 C14       -1.0791     0.6979    -0.0943 C.ar       1 ****  0
   15 C15       -1.1483    -0.7040    -0.1078 C.ar       1 ****  0
   16 C16        0.0342    -1.4109    -0.0461 C.ar       1 ****  0
   17 C17       -2.4459     1.4768    -0.1478 C.3        1 ****  0
   18 O1        -0.6695    -3.6366    -0.0855 O.2        1 ****  0
   19 O2         1.6288    -3.1265     0.0292 O.3        1 ****  0
   20 O3         0.1202     2.8393    -0.0208 O.3        1 ****  0
   21 O4        -2.3593    -1.4417    -0.1826 O.3        1 ****  0
   22 O5        -5.0865     8.3342    -0.0008 O.co2      1 ****  -0.50
   23 O6        -2.8781     7.9093     0.0165 O.co2      1 ****  -0.50
   24 H1        -1.3855     3.4189    -0.0921 H          1 ****  0
   25 H2        -2.6443     5.4954     0.9340 H          1 ****  0
   26 H3        -2.5689     5.5447    -0.8123 H          1 ****  0
   27 H4        -5.0305     5.7935    -0.9015 H          1 ****  0
   28 H5        -5.0808     5.7888     0.8464 H          1 ****  0
   29 H6         3.3138     0.6744    -0.7613 H          1 ****  0
   30 H7         3.2343     0.6724     0.9831 H          1 ****  0
   31 H8         2.8292     2.1217     0.0924 H          1 ****  0
   32 H9         1.8811     3.3272    -0.7989 H          1 ****  0
   33 H10        1.7896     3.3134     0.9449 H          1 ****  0
   34 H11        1.1011     4.6453     0.0449 H          1 ****  0
   35 H12       -4.8066     2.5133     0.8334 H          1 ****  0
   36 H13       -4.8525     2.5858    -0.9108 H          1 ****  0
   37 H14       -5.5209     3.8957     0.0355 H          1 ****  0
   38 H15        2.8799    -1.7079     0.9670 H          1 ****  0
   39 H16        2.9648    -1.7026    -0.7796 H          1 ****  0
   40 H17       -3.0855     1.1281     0.6784 H          1 ****  0
   41 H18       -2.9788     1.1934    -1.0658 H          1 ****  0
   42 H19       -3.1505    -0.8726    -0.2292 H          1 ****  0
@<TRIPOS>BOND
    1     1    16 1
    2     1    18 2
    3     1    19 1
    4     2     3 2
    5     2    17 1
    6     2    24 1
    7     3     4 1
    8     3     9 1
    9     4     5 1
   10     4    25 1
   11     4    26 1
   12     5     6 1
   13     5    27 1
   14     5    28 1
   15     6    22 ar
   16     6    23 ar
   17     7    12 1
   18     7    29 1
   19     7    30 1
   20     7    31 1
   21     8    20 1
   22     8    32 1
   23     8    33 1
   24     8    34 1
   25     9    35 1
   26     9    36 1
   27     9    37 1
   28    10    11 1
   29    10    19 1
   30    10    38 1
   31    10    39 1
   32    11    12 ar
   33    11    16 ar
   34    12    13 ar
   35    13    14 ar
   36    13    20 1
   37    14    15 ar
   38    14    17 1
   39    15    16 ar
   40    15    21 1
   41    17    40 1
   42    17    41 1
   43    21    42 1
@<TRIPOS>SUBSTRUCTURE
1   ****   1
@<TRIPOS>MOLECULE
1mmv
36  35  1  0  0
SMALL
FORMAL_CHARGES
@<TRIPOS>ATOM
    1 N1        11.5143     1.8462    -1.0305 N.4        1 ****  1
    2 C1        11.5023     0.8447     0.0449 C.3        1 ****  0
    3 C2        12.7612     0.0296     0.0029 C.2        1 ****  0.0000
    4 O1        12.7206    -1.2960     0.2962 O.co2      1 ****  -0.50
    5 C3        10.2758    -0.0756    -0.0740 C.3        1 ****  0
    6 C4         8.9867     0.7629    -0.0012 C.3        1 ****  0
    7 C5         7.7730    -0.1784    -0.0893 C.3        1 ****  0
    8 N2         6.5562     0.5794    -0.0299 N.3        1 ****  0
    9 C6         5.3326    -0.0928    -0.0160 C.2        1 ****  0
   10 N3         4.1360     0.6243     0.0134 N.3        1 ****  0
   11 N4         5.3085    -1.3613    -0.0352 N.2        1 ****  1
   12 C7         2.8885    -0.0849     0.0165 C.3        1 ****  0
   13 C8         1.7207     0.9168     0.0058 C.3        1 ****  0
   14 C9         0.3873     0.1460     0.0050 C.3        1 ****  0
   15 O2        13.8339     0.5636    -0.3004 O.co2      1 ****  -0.50
   16 H1        11.5831     1.3677    -1.9400 H          1 ****  0
   17 H2        12.3283     2.4655    -0.9091 H          1 ****  0
   18 H3        10.6484     2.4031    -0.9977 H          1 ****  0
   19 H4        11.4450     1.3738     1.0075 H          1 ****  0
   20 H5        10.3106    -0.6096    -1.0351 H          1 ****  0
   21 H6        10.2836    -0.8056     0.7488 H          1 ****  0
   22 H7         8.9578     1.3116     0.9518 H          1 ****  0
   23 H8         8.9613     1.4743    -0.8398 H          1 ****  0
   24 H9         7.8100    -0.7345    -1.0376 H          1 ****  0
   25 H10        7.7999    -0.8902     0.7489 H          1 ****  0
   26 H11        6.5850     1.6085     0.0020 H          1 ****  0
   27 H12        4.1480     1.6541     0.0327 H          1 ****  0
   28 H13        4.4080    -1.8612    -0.0250 H          1 ****  0
   29 H14        6.1911    -1.8915    -0.0611 H          1 ****  0
   30 H15        2.8244    -0.7109     0.9188 H          1 ****  0
   31 H16        2.8291    -0.7250    -0.8761 H          1 ****  0
   32 H17        1.7752     1.5538     0.9009 H          1 ****  0
   33 H18        1.7819     1.5437    -0.8960 H          1 ****  0
   34 H19        0.3232    -0.4809     0.9066 H          1 ****  0
   35 H20        0.3305    -0.4917    -0.8896 H          1 ****  0
   36 H21       -0.4489     0.8605    -0.0027 H          1 ****  0
@<TRIPOS>BOND
    1     1    16 1
    2     1    17 1
    3     1    18 1
    4     2     1 1
    5     2     3 1
    6     2     5 1
    7     2    19 1
    8     3     4 ar
    9     3    15 ar
   10     5     6 1
   11     5    20 1
   12     5    21 1
   13     6     7 1
   14     6    22 1
   15     6    23 1
   16     7     8 1
   17     7    24 1
   18     7    25 1
   19     8     9 1
   20     8    26 1
   21     9    10 1
   22     9    11 2
   23    10    12 1
   24    10    27 1
   25    11    28 1
   26    11    29 1
   27    12    13 1
   28    12    30 1
   29    12    31 1
   30    13    14 1
   31    13    32 1
   32    13    33 1
   33    14    34 1
   34    14    35 1
   35    14    36 1
@<TRIPOS>SUBSTRUCTURE
1   ****   1
@<TRIPOS>MOLECULE
1mzc
69  72  1  0  0
SMALL
FORMAL_CHARGES
@<TRIPOS>ATOM
    1 C1         1.5936     0.1133     0.3243 C.3        1 ****  0
    2 C2         3.0420    -0.3471     0.0657 C.ar       1 ****  0
    3 C3         1.4022     1.5024    -0.3053 C.2        1 ****  0
    4 C4         0.6477    -0.9073    -0.3446 C.3        1 ****  0
    5 C5         1.3737     0.1962     1.8718 C.3        1 ****  0
    6 C6         3.3226    -1.5720    -0.5509 C.ar       1 ****  0
    7 C7         4.0880     0.4786     0.4612 C.ar       1 ****  0
    8 N1         0.1622     2.1837    -0.3819 N.am       1 ****  0
    9 O1         2.3757     2.0630    -0.8157 O.2        1 ****  0
   10 C8        -0.8569    -0.7387     0.0075 C.3        1 ****  0
   11 C9         1.6847    -1.1436     2.5691 C.3        1 ****  0
   12 C10        4.6456    -1.9503    -0.7994 C.ar       1 ****  0
   13 C11        5.4016     0.1109     0.2166 C.ar       1 ****  0
   14 C12       -1.0387     1.7202     0.2177 C.3        1 ****  0
   15 C13        0.1099     3.4135    -1.1085 C.3        1 ****  0
   16 C14       -1.5494     0.5060    -0.5186 C.3        1 ****  0
   17 O2         5.0774    -3.1967    -1.4010 O.3        1 ****  0
   18 C15        5.6707    -1.0898    -0.4228 C.ar       1 ****  0
   19 C16        4.1896    -4.2644    -1.7730 C.ar       1 ****  0
   20 C17        4.7891    -5.4112    -2.2933 C.ar       1 ****  0
   21 C18        2.8046    -4.2390    -1.5955 C.ar       1 ****  0
   22 C19        4.0279    -6.5206    -2.6245 C.ar       1 ****  0
   23 C20        6.2041    -5.4762    -2.4730 C.1        1 ****  0
   24 C21        2.0407    -5.3648    -1.9078 C.ar       1 ****  0
   25 C22        2.6600    -6.4953    -2.4219 C.ar       1 ****  0
   26 N2         7.3431    -5.5515    -2.6233 N.1        1 ****  0
   27 C23        0.5364    -5.4863    -1.6657 C.3        1 ****  0
   28 C24       -0.1202    -4.5504    -0.6375 C.ar       1 ****  0
   29 C25        0.2799    -6.9134    -1.1542 C.3        1 ****  0
   30 N3        -0.1541    -5.3789    -2.9650 N.4        1 ****  1
   31 N4         0.2954    -4.1965     0.5745 N.ar       1 ****  0
   32 C26       -1.4250    -4.1015    -0.7698 C.ar       1 ****  0
   33 C27       -0.6925    -3.5676     1.1968 C.ar       1 ****  0
   34 C28        1.5497    -4.5038     1.2103 C.3        1 ****  0
   35 N5        -1.7325    -3.4890     0.3679 N.ar       1 ****  0
   36 H1         0.9638    -1.9177    -0.0691 H          1 ****  0
   37 H2         0.7665    -0.8410    -1.4329 H          1 ****  0
   38 H3         0.3490     0.4713     2.0726 H          1 ****  0
   39 H4         2.0126     0.9678     2.2824 H          1 ****  0
   40 H5         2.5210    -2.2219    -0.8334 H          1 ****  0
   41 H6         3.8778     1.4032     0.9571 H          1 ****  0
   42 H7        -1.4068    -1.6261    -0.3543 H          1 ****  0
   43 H8        -0.9692    -0.7652     1.1035 H          1 ****  0
   44 H9         2.7063    -1.4036     2.3584 H          1 ****  0
   45 H10        1.0447    -1.8982     2.1488 H          1 ****  0
   46 H11        1.5302    -1.0646     3.6073 H          1 ****  0
   47 H12        6.2043     0.7503     0.5195 H          1 ****  0
   48 H13       -1.7781     2.4950     0.1815 H          1 ****  0
   49 H14       -0.8492     1.4618     1.2433 H          1 ****  0
   50 H15        0.4738     3.1690    -2.1051 H          1 ****  0
   51 H16        0.8660     4.0469    -0.6474 H          1 ****  0
   52 H17       -0.8054     3.8340    -1.1154 H          1 ****  0
   53 H18       -2.6053     0.4177    -0.3694 H          1 ****  0
   54 H19       -1.3456     0.6125    -1.5666 H          1 ****  0
   55 H20        6.6854    -1.3590    -0.6299 H          1 ****  0
   56 H21        2.3292    -3.3568    -1.2204 H          1 ****  0
   57 H22        4.4954    -7.3913    -3.0345 H          1 ****  0
   58 H23        2.0730    -7.3565    -2.6641 H          1 ****  0
   59 H24        0.7921    -7.0857    -0.2372 H          1 ****  0
   60 H25        0.5721    -7.6350    -1.8801 H          1 ****  0
   61 H26       -0.7937    -7.0284    -0.9720 H          1 ****  0
   62 H27        0.2198    -6.0959    -3.6032 H          1 ****  0
   63 H28       -0.0012    -4.4471    -3.3697 H          1 ****  0
   64 H29       -1.1624    -5.5406    -2.8371 H          1 ****  0
   65 H30       -2.0604    -4.2244    -1.6219 H          1 ****  0
   66 H31       -0.6598    -3.1873     2.1964 H          1 ****  0
   67 H32        2.2608    -4.1500     0.4338 H          1 ****  0
   68 H33        1.5670    -5.6087     1.0975 H          1 ****  0
   69 H34        1.6848    -4.1702     2.0848 H          1 ****  0
@<TRIPOS>BOND
    1     1     2 1
    2     1     3 1
    3     1     4 1
    4     1     5 1
    5     2     6 ar
    6     2     7 ar
    7     3     8 am
    8     3     9 2
    9     4    10 1
   10     4    36 1
   11     4    37 1
   12     5    11 1
   13     5    38 1
   14     5    39 1
   15     6    12 ar
   16     6    40 1
   17     7    13 ar
   18     7    41 1
   19     8    14 1
   20     8    15 1
   21    10    16 1
   22    10    42 1
   23    10    43 1
   24    11    44 1
   25    11    45 1
   26    11    46 1
   27    12    17 1
   28    12    18 ar
   29    13    18 ar
   30    13    47 1
   31    14    16 1
   32    14    48 1
   33    14    49 1
   34    15    50 1
   35    15    51 1
   36    15    52 1
   37    16    53 1
   38    16    54 1
   39    17    19 1
   40    18    55 1
   41    19    20 ar
   42    19    21 ar
   43    20    22 ar
   44    20    23 1
   45    21    24 ar
   46    21    56 1
   47    22    25 ar
   48    22    57 1
   49    23    26 3
   50    24    25 ar
   51    24    27 1
   52    25    58 1
   53    27    28 1
   54    27    29 1
   55    27    30 1
   56    28    31 ar
   57    28    32 ar
   58    29    59 1
   59    29    60 1
   60    29    61 1
   61    30    62 1
   62    30    63 1
   63    30    64 1
   64    31    33 ar
   65    31    34 1
   66    32    35 ar
   67    32    65 1
   68    33    35 ar
   69    33    66 1
   70    34    67 1
   71    34    68 1
   72    34    69 1
@<TRIPOS>SUBSTRUCTURE
1   ****   1
@<TRIPOS>MOLECULE
1n1m
31  31  1  0  0
SMALL
FORMAL_CHARGES
@<TRIPOS>ATOM
    1 C1         0.7269    -0.9930     0.2595 C.3        1 ****  0
    2 C2         1.1994     0.4067    -0.1755 C.3        1 ****  0
    3 N1        -0.0002     1.1788    -0.0116 N.am       1 ****  0
    4 C3        -1.2048     0.4105     0.1438 C.3        1 ****  0
    5 C4        -0.7252    -1.0038    -0.2377 C.3        1 ****  0
    6 C5         0.0085     2.5820     0.0336 C.2        1 ****  0
    7 C6         1.3066     3.3557    -0.1395 C.3        1 ****  0
    8 C7         1.0944     4.8818     0.0087 C.3        1 ****  0
    9 C8         2.4611     5.5845    -0.0833 C.3        1 ****  0
   10 O1        -1.0493     3.1788     0.2748 O.2        1 ****  0
   11 N2         1.8960     3.0880    -1.4626 N.4        1 ****  1
   12 C9         0.1925     5.4105    -1.1294 C.3        1 ****  0
   13 H1         1.3124    -1.7711    -0.2522 H          1 ****  0
   14 H2         0.7567    -1.0851     1.3552 H          1 ****  0
   15 H3         1.9882     0.7701     0.4996 H          1 ****  0
   16 H4         1.5100     0.3949    -1.2307 H          1 ****  0
   17 H5        -1.9770     0.7534    -0.5606 H          1 ****  0
   18 H6        -1.5426     0.4285     1.1905 H          1 ****  0
   19 H7        -1.3101    -1.7637     0.3013 H          1 ****  0
   20 H8        -0.7554    -1.1360    -1.3293 H          1 ****  0
   21 H9         1.9873     3.0151     0.6546 H          1 ****  0
   22 H10        0.6152     5.0852     0.9776 H          1 ****  0
   23 H11        2.9243     5.3733    -1.0584 H          1 ****  0
   24 H12        3.1191     5.2274     0.7226 H          1 ****  0
   25 H13        2.3178     6.6701     0.0213 H          1 ****  0
   26 H14        1.2266     3.3718    -2.1922 H          1 ****  0
   27 H15        2.0831     2.0788    -1.5489 H          1 ****  0
   28 H16        2.7739     3.6157    -1.5708 H          1 ****  0
   29 H17       -0.7804     4.8989    -1.0862 H          1 ****  0
   30 H18        0.6709     5.1988    -2.0970 H          1 ****  0
   31 H19        0.0463     6.4949    -1.0175 H          1 ****  0
@<TRIPOS>BOND
    1     1     2 1
    2     1     5 1
    3     1    13 1
    4     1    14 1
    5     2     3 1
    6     2    15 1
    7     2    16 1
    8     3     4 1
    9     3     6 am
   10     4     5 1
   11     4    17 1
   12     4    18 1
   13     5    19 1
   14     5    20 1
   15     6     7 1
   16     6    10 2
   17     7     8 1
   18     7    11 1
   19     7    21 1
   20     8     9 1
   21     8    12 1
   22     8    22 1
   23     9    23 1
   24     9    24 1
   25     9    25 1
   26    11    26 1
   27    11    27 1
   28    11    28 1
   29    12    29 1
   30    12    30 1
   31    12    31 1
@<TRIPOS>SUBSTRUCTURE
1   ****   1
@<TRIPOS>MOLECULE
1n2j
21  20  1  0  0
SMALL
FORMAL_CHARGES
@<TRIPOS>ATOM
    1 O1         0.2249     0.1066    -0.0043 O.co2      1 ****  -0.50
    2 C1         1.3073     0.7126     0.0117 C.2        1 ****  0.0000
    3 O2         1.3006     2.0723     0.0528 O.co2      1 ****  -0.50
    4 C2         2.5830     0.5450    -0.9330 C.3        1 ****  0
    5 O3         2.6201    -0.8806    -1.2214 O.3        1 ****  0
    6 C3         3.8808     0.7991     0.0204 C.3        1 ****  0
    7 C4         3.9347     1.7443    -1.1976 C.3        1 ****  0
    8 C5         3.9140     1.6170     1.3288 C.3        1 ****  0
    9 C6         5.1182    -0.1139    -0.0172 C.3        1 ****  0
   10 O4         6.2996     0.6912     0.0217 O.3        1 ****  0
   11 H1         2.5647     1.1774    -1.8329 H          1 ****  0
   12 H2         2.5693    -0.2923    -2.0160 H          1 ****  0
   13 H3         3.0421     2.3872    -1.1932 H          1 ****  0
   14 H4         3.9428     1.1431    -2.1188 H          1 ****  0
   15 H5         4.8411     2.3659    -1.1511 H          1 ****  0
   16 H6         3.9096     0.9267     2.1852 H          1 ****  0
   17 H7         3.0212     2.2579     1.3756 H          1 ****  0
   18 H8         4.8201     2.2399     1.3585 H          1 ****  0
   19 H9         5.1044    -0.7873     0.8525 H          1 ****  0
   20 H10        5.1097    -0.7078    -0.9431 H          1 ****  0
   21 H11        6.3104     1.2259     0.8548 H          1 ****  0
@<TRIPOS>BOND
    1     1     2 ar
    2     2     3 ar
    3     2     4 1
    4     4     5 1
    5     4     6 1
    6     4    11 1
    7     5    12 1
    8     6     7 1
    9     6     8 1
   10     6     9 1
   11     7    13 1
   12     7    14 1
   13     7    15 1
   14     8    16 1
   15     8    17 1
   16     8    18 1
   17     9    10 1
   18     9    19 1
   19     9    20 1
   20    10    21 1
@<TRIPOS>SUBSTRUCTURE
1   ****   1
@<TRIPOS>MOLECULE
1n2v
27  28  1  0  0
SMALL
FORMAL_CHARGES
@<TRIPOS>ATOM
    1 N1         0.2813    -2.7093    -0.0004 N.ar       1 ****  0
    2 C1         1.6149    -2.7979    -0.0004 C.ar       1 ****  0
    3 C2         2.3629    -4.0939    -0.0006 C.3        1 ****  0
    4 C3         1.3687    -5.2692    -0.0014 C.3        1 ****  0
    5 C4         2.1515    -6.5955    -0.0016 C.3        1 ****  0
    6 C5         1.1657    -7.7779    -0.0024 C.3        1 ****  0
    7 N2         2.2053    -1.5988    -0.0003 N.ar       1 ****  0
    8 C6         1.2101    -0.7280    -0.0002 C.ar       1 ****  0
    9 C7         1.2398     0.7075    -0.0001 C.2        1 ****  0
   10 N3        -0.0067     1.3911     0.0001 N.am       1 ****  0
   11 N4        -1.2011     0.7017    -0.0000 N.am       1 ****  0
   12 C8        -1.2327    -0.7196    -0.0002 C.2        1 ****  0
   13 O1        -2.3049    -1.3348    -0.0003 O.2        1 ****  0
   14 C9         0.0252    -1.4119    -0.0003 C.ar       1 ****  0
   15 O2         2.3089     1.3282    -0.0000 O.2        1 ****  0
   16 H1        -0.3987    -3.4829    -0.0005 H          1 ****  0
   17 H2         2.9966    -4.1506    -0.8980 H          1 ****  0
   18 H3         2.9964    -4.1520     0.8968 H          1 ****  0
   19 H4         0.7367    -5.2165     0.8974 H          1 ****  0
   20 H5         0.7367    -5.2166    -0.9002 H          1 ****  0
   21 H6         2.7851    -6.6469    -0.8993 H          1 ****  0
   22 H7         2.7849    -6.6483     0.8962 H          1 ****  0
   23 H8         0.5325    -7.7264    -0.9004 H          1 ****  0
   24 H9         0.5318    -7.7270     0.8951 H          1 ****  0
   25 H10        1.7256    -8.7247    -0.0025 H          1 ****  0
   26 H11       -0.0180     2.4210     0.0002 H          1 ****  0
   27 H12       -2.0872     1.2267     0.0001 H          1 ****  0
@<TRIPOS>BOND
    1     1     2 ar
    2     1    14 ar
    3     1    16 1
    4     2     3 1
    5     2     7 ar
    6     3     4 1
    7     3    17 1
    8     3    18 1
    9     4     5 1
   10     4    19 1
   11     4    20 1
   12     5     6 1
   13     5    21 1
   14     5    22 1
   15     6    23 1
   16     6    24 1
   17     6    25 1
   18     7     8 ar
   19     8     9 1
   20     8    14 ar
   21     9    10 am
   22     9    15 2
   23    10    11 1
   24    10    26 1
   25    11    12 am
   26    11    27 1
   27    12    13 2
   28    12    14 1
@<TRIPOS>SUBSTRUCTURE
1   ****   1
@<TRIPOS>MOLECULE
1n46
47  49  1  0  0
SMALL
FORMAL_CHARGES
@<TRIPOS>ATOM
    1 O1         3.8805     0.3208    -0.0009 O.2        1 ****  0
    2 C1         3.7664    -0.9113    -0.0010 C.2        1 ****  0
    3 N1         4.9125    -1.6499     0.0025 N.am       1 ****  -1
    4 C2         4.8119    -3.0062     0.0009 C.2        1 ****  0
    5 O2         5.8360    -3.6965     0.0022 O.2        1 ****  0
    6 N2         2.4777    -1.5840    -0.0069 N.am       1 ****  0
    7 N3         2.4238    -2.9218    -0.0072 N.2        1 ****  0
    8 C3         3.4859    -3.6303    -0.0035 C.2        1 ****  0
    9 C4         1.2822    -0.8216    -0.0096 C.ar       1 ****  0
   10 C5         1.4009     0.5400     0.0042 C.ar       1 ****  0
   11 C6         0.3287     1.4018     0.0065 C.ar       1 ****  0
   12 C7         0.8186     2.7926     0.0265 C.3        1 ****  0
   13 C8         0.0022    -1.3625    -0.0232 C.ar       1 ****  0
   14 C9        -1.1053    -0.5090    -0.0206 C.ar       1 ****  0
   15 C10       -2.4797    -1.1210    -0.0315 C.3        1 ****  0
   16 C11       -0.9890     0.8887    -0.0048 C.ar       1 ****  0
   17 O3        -2.3463     1.6057     0.0054 O.3        1 ****  0
   18 C12       -2.6376     3.0557     0.0214 C.ar       1 ****  0
   19 C13       -1.6601     4.0268     0.0124 C.ar       1 ****  0
   20 C14       -3.9583     3.5008     0.0524 C.ar       1 ****  0
   21 C15       -4.2584     4.8677     0.0744 C.ar       1 ****  0
   22 C16       -5.7009     5.3026     0.1074 C.3        1 ****  0
   23 C17       -6.6167     4.0970    -0.1545 C.3        1 ****  0
   24 C18       -6.0379     5.8943     1.4954 C.3        1 ****  0
   25 C19       -3.2313     5.8147     0.0632 C.ar       1 ****  0
   26 C20       -1.9235     5.3797     0.0343 C.ar       1 ****  0
   27 O4        -3.4356     7.2068     0.0752 O.3        1 ****  0
   28 H1         3.4066    -4.6974    -0.0036 H          1 ****  0
   29 H2         2.3850     0.9600     0.0139 H          1 ****  0
   30 H3         1.4184     2.9738    -0.8401 H          1 ****  0
   31 H4         1.4054     2.9532     0.9060 H          1 ****  0
   32 H5        -0.0172     3.4666     0.0283 H          1 ****  0
   33 H6        -0.1347    -2.4236    -0.0357 H          1 ****  0
   34 H7        -2.5037    -1.7777     0.8360 H          1 ****  0
   35 H8        -2.4964    -1.7628    -0.9102 H          1 ****  0
   36 H9        -3.2165    -0.4352    -0.0287 H          1 ****  0
   37 H10       -0.6376     3.7126    -0.0131 H          1 ****  0
   38 H11       -4.7549     2.7864     0.0595 H          1 ****  0
   39 H12       -5.8628     6.0679    -0.6682 H          1 ****  0
   40 H13       -6.4498     3.3553     0.5991 H          1 ****  0
   41 H14       -6.3904     3.6825    -1.1152 H          1 ****  0
   42 H15       -7.6394     4.4092    -0.1304 H          1 ****  0
   43 H16       -5.4066     6.7376     1.6844 H          1 ****  0
   44 H17       -5.8718     5.1515     2.2477 H          1 ****  0
   45 H18       -7.0628     6.2023     1.5161 H          1 ****  0
   46 H19       -1.1198     6.0861     0.0289 H          1 ****  0
   47 H20       -4.3734     7.4404     0.0846 H          1 ****  0
@<TRIPOS>BOND
    1     1     2 2
    2     2     3 1
    3     2     6 am
    4     3     4 1
    5     4     5 2
    6     4     8 1
    7     6     7 1
    8     6     9 1
    9     7     8 2
   10     8    28 1
   11     9    10 ar
   12     9    13 ar
   13    10    11 ar
   14    10    29 1
   15    11    12 1
   16    11    16 ar
   17    12    30 1
   18    12    31 1
   19    12    32 1
   20    13    14 ar
   21    13    33 1
   22    14    15 1
   23    14    16 ar
   24    15    34 1
   25    15    35 1
   26    15    36 1
   27    16    17 1
   28    17    18 1
   29    18    19 ar
   30    18    20 ar
   31    19    26 ar
   32    19    37 1
   33    20    21 ar
   34    20    38 1
   35    21    22 1
   36    21    25 ar
   37    22    23 1
   38    22    24 1
   39    22    39 1
   40    23    40 1
   41    23    41 1
   42    23    42 1
   43    24    43 1
   44    24    44 1
   45    24    45 1
   46    25    26 ar
   47    25    27 1
   48    26    46 1
   49    27    47 1
@<TRIPOS>SUBSTRUCTURE
1   ****   1
@<TRIPOS>MOLECULE
1nav
38  39  1  0  0
SMALL
FORMAL_CHARGES
@<TRIPOS>ATOM
    1 O1         4.9054    -1.5272     0.0019 O.co2      1 ****  -0.50
    2 C1         3.8447    -0.8952    -0.0104 C.2        1 ****  0.0000
    3 O2         3.9081     0.4685    -0.0104 O.co2      1 ****  -0.50
    4 C2         2.5069    -1.6748    -0.0289 C.3        1 ****  0
    5 C3         1.2637    -0.7969    -0.0063 C.ar       1 ****  0
    6 C4         1.3814     0.5745     0.0206 C.ar       1 ****  0
    7 C5         0.2900     1.4235     0.0368 C.ar       1 ****  0
    8 C6        -1.0159     0.8864     0.0285 C.ar       1 ****  0
    9 O3        -2.3600     1.5667     0.0246 O.3        1 ****  0
   10 C7        -2.6361     2.9878    -0.0365 C.ar       1 ****  0
   11 C8        -1.6479     3.9437    -0.1480 C.ar       1 ****  0
   12 C9        -1.9191     5.2967    -0.1964 C.ar       1 ****  0
   13 C10       -3.2369     5.7237    -0.1437 C.ar       1 ****  0
   14 O4        -3.4903     7.0849    -0.1841 O.3        1 ****  0
   15 C11       -4.2560     4.7926    -0.0538 C.ar       1 ****  0
   16 C12       -3.9578     3.4249     0.0008 C.ar       1 ****  0
   17 C13       -5.6894     5.2581    -0.0052 C.3        1 ****  0
   18 C14       -6.6324     4.0536     0.1454 C.3        1 ****  0
   19 C15       -6.0396     6.0104    -1.3084 C.3        1 ****  0
   20 C16       -1.1233    -0.5092     0.0212 C.ar       1 ****  0
   21 C17       -0.0096    -1.3434     0.0029 C.ar       1 ****  0
   22 Cl1       -2.6899    -1.2240     0.0194 Cl         1 ****  0
   23 Cl2        0.7863     3.0601     0.1280 Cl         1 ****  0
   24 H1         2.4772    -2.3506     0.8276 H          1 ****  0
   25 H2         2.4767    -2.3082    -0.9206 H          1 ****  0
   26 H3         2.3619     1.0029     0.0294 H          1 ****  0
   27 H4        -0.6283     3.6233    -0.1991 H          1 ****  0
   28 H5        -1.1222     6.0066    -0.2736 H          1 ****  0
   29 H6        -2.6285     7.5719    -0.2506 H          1 ****  0
   30 H7        -4.7514     2.7108     0.0718 H          1 ****  0
   31 H8        -5.8172     5.9383     0.8508 H          1 ****  0
   32 H9        -6.3945     3.5314     1.0497 H          1 ****  0
   33 H10       -6.4978     3.3948    -0.6881 H          1 ****  0
   34 H11       -7.6452     4.3894     0.1792 H          1 ****  0
   35 H12       -5.9054     5.3549    -2.1437 H          1 ****  0
   36 H13       -5.3930     6.8566    -1.4145 H          1 ****  0
   37 H14       -7.0574     6.3398    -1.2715 H          1 ****  0
   38 H15       -0.1363    -2.4059    -0.0040 H          1 ****  0
@<TRIPOS>BOND
    1     1     2 ar
    2     2     3 ar
    3     2     4 1
    4     4     5 1
    5     4    24 1
    6     4    25 1
    7     5     6 ar
    8     5    21 ar
    9     6     7 ar
   10     6    26 1
   11     7     8 ar
   12     7    23 1
   13     8     9 1
   14     8    20 ar
   15     9    10 1
   16    10    11 ar
   17    10    16 ar
   18    11    12 ar
   19    11    27 1
   20    12    13 ar
   21    12    28 1
   22    13    14 1
   23    13    15 ar
   24    14    29 1
   25    15    16 ar
   26    15    17 1
   27    16    30 1
   28    17    18 1
   29    17    19 1
   30    17    31 1
   31    18    32 1
   32    18    33 1
   33    18    34 1
   34    19    35 1
   35    19    36 1
   36    19    37 1
   37    20    21 ar
   38    20    22 1
   39    21    38 1
@<TRIPOS>SUBSTRUCTURE
1   ****   1
@<TRIPOS>MOLECULE
1of1
34  36  1  0  0
SMALL
FORMAL_CHARGES
@<TRIPOS>ATOM
    1 O1         3.4591     2.0582     1.7569 O.3        1 ****  0
    2 O2         5.1544     1.0194    -1.4568 O.3        1 ****  0
    3 O3         1.5380     1.7279     0.1047 O.2        1 ****  0
    4 O4        -2.8545     0.9163     0.0739 O.2        1 ****  0
    5 N1         0.8957    -0.5051    -0.1839 N.am       1 ****  0
    6 N2        -0.6475     1.3698     0.0522 N.am       1 ****  0
    7 C1         4.2823     0.0261     0.6634 C.3        1 ****  0
    8 C2         3.9940     0.5576    -0.7663 C.3        1 ****  0
    9 C3         3.2740    -0.5848    -1.4391 C.3        1 ****  0
   10 C4         2.2564    -1.0536    -0.3281 C.3        1 ****  0
   11 C5         2.9529    -0.6144     1.0302 C.3        1 ****  0
   12 C6         4.6090     1.1891     1.6250 C.3        1 ****  0
   13 C7         0.6391     0.9011    -0.0100 C.2        1 ****  0
   14 C8         2.8430    -2.0855     0.5519 C.3        1 ****  0
   15 C9        -1.6950     0.4921     0.0148 C.2        1 ****  0
   16 C10       -1.4366    -0.9368    -0.0780 C.2        1 ****  0
   17 C11       -0.1858    -1.3910    -0.1768 C.2        1 ****  0
   18 C12       -2.5828    -1.8982    -0.0628 C.3        1 ****  0
   19 H1         2.7198     1.5852     2.2422 H          1 ****  0
   20 H2         5.8056     0.2854    -1.5378 H          1 ****  0
   21 H3        -0.8135     2.3469     0.1351 H          1 ****  0
   22 H4         5.0769    -0.7297     0.6642 H          1 ****  0
   23 H5         3.2975     1.3583    -0.7030 H          1 ****  0
   24 H6         3.9435    -1.3542    -1.6518 H          1 ****  0
   25 H7         2.7511    -0.2364    -2.2738 H          1 ****  0
   26 H8         2.6695    -0.8059     2.0746 H          1 ****  0
   27 H9         4.8699     0.7935     2.5858 H          1 ****  0
   28 H10        5.4385     1.7505     1.2371 H          1 ****  0
   29 H11        2.1513    -2.4902     1.0439 H          1 ****  0
   30 H12        3.6801    -2.3320     0.2097 H          1 ****  0
   31 H13       -0.0088    -2.4436    -0.2513 H          1 ****  0
   32 H14       -3.2241    -1.5665    -0.8830 H          1 ****  0
   33 H15       -3.1218    -1.6610     0.8576 H          1 ****  0
   34 H16       -2.3080    -2.8521    -0.1307 H          1 ****  0
@<TRIPOS>BOND
    1     1    12 1
    2     1    19 1
    3     2    20 1
    4     3    13 2
    5     4    15 2
    6     5    10 1
    7     5    13 am
    8     5    17 1
    9     6    13 am
   10     6    15 am
   11     6    21 1
   12     7     8 1
   13     7    11 1
   14     7    12 1
   15     7    22 1
   16     8     2 1
   17     8     9 1
   18     8    23 1
   19     9    24 1
   20     9    25 1
   21    10     9 1
   22    10    11 1
   23    10    14 1
   24    11    14 1
   25    11    26 1
   26    12    27 1
   27    12    28 1
   28    14    29 1
   29    14    30 1
   30    15    16 1
   31    16    17 2
   32    16    18 1
   33    17    31 1
   34    18    32 1
   35    18    33 1
   36    18    34 1
@<TRIPOS>SUBSTRUCTURE
1   ****   1
@<TRIPOS>MOLECULE
1of6
24  24  1  0  0
SMALL
FORMAL_CHARGES
@<TRIPOS>ATOM
    1 N1         3.7009     0.1556    -1.4727 N.4        1 ****  1
    2 C1         3.7123    -0.4940    -0.1492 C.3        1 ****  0
    3 C2         4.9754    -1.2909    -0.0150 C.2        1 ****  0.0000
    4 O1         6.0725    -0.7379    -0.1503 O.co2      1 ****  -0.50
    5 C3         2.4986    -1.4429    -0.0027 C.3        1 ****  0
    6 C4         1.1920    -0.6884    -0.0001 C.ar       1 ****  0
    7 C5         1.1928     0.7015     0.0001 C.ar       1 ****  0
    8 C6        -0.0114    -1.3835    -0.0003 C.ar       1 ****  0
    9 C7        -0.0106     1.3965     0.0001 C.ar       1 ****  0
   10 C8        -1.2147    -0.6886    -0.0003 C.ar       1 ****  0
   11 C9        -1.2141     0.7012    -0.0001 C.ar       1 ****  0
   12 O2        -2.4168     1.3951    -0.0001 O.3        1 ****  0
   13 O3         4.9127    -2.6217     0.2485 O.co2      1 ****  -0.50
   14 H1         3.7345    -0.5591    -2.2136 H          1 ****  0
   15 H2         4.5124     0.7837    -1.5613 H          1 ****  0
   16 H3         2.8355     0.7053    -1.5722 H          1 ****  0
   17 H4         3.6571     0.2776     0.6329 H          1 ****  0
   18 H5         2.4982    -2.1597    -0.8371 H          1 ****  0
   19 H6         2.5906    -2.0055     0.9380 H          1 ****  0
   20 H7         2.1457     1.2512     0.0003 H          1 ****  0
   21 H8        -0.0113    -2.4835    -0.0004 H          1 ****  0
   22 H9        -0.0107     2.4965     0.0003 H          1 ****  0
   23 H10       -2.1675    -1.2383    -0.0004 H          1 ****  0
   24 H11       -2.3730     1.9819    -0.7962 H          1 ****  0
@<TRIPOS>BOND
    1     1    14 1
    2     1    15 1
    3     1    16 1
    4     2     1 1
    5     2     3 1
    6     2     5 1
    7     2    17 1
    8     3     4 ar
    9     3    13 ar
   10     5     6 1
   11     5    18 1
   12     5    19 1
   13     6     7 ar
   14     6     8 ar
   15     7     9 ar
   16     7    20 1
   17     8    10 ar
   18     8    21 1
   19     9    11 ar
   20     9    22 1
   21    10    11 ar
   22    10    23 1
   23    11    12 1
   24    12    24 1
@<TRIPOS>SUBSTRUCTURE
1   ****   1
@<TRIPOS>MOLECULE
1opk
45  48  1  0  0
SMALL
FORMAL_CHARGES
@<TRIPOS>ATOM
    1 O1         8.5222    -0.5588     0.0081 O.3        1 ****  0
    2 C1         7.4045    -1.4528    -0.0069 C.3        1 ****  0
    3 C2         6.1289    -0.6640    -0.0068 C.ar       1 ****  0
    4 C3         6.1723     0.7247    -0.0149 C.ar       1 ****  0
    5 C4         4.9924     1.4558    -0.0141 C.ar       1 ****  0
    6 C5         3.7719     0.7947    -0.0077 C.ar       1 ****  0
    7 C6         3.7214    -0.5948    -0.0019 C.ar       1 ****  0
    8 N1         2.4600    -1.3027     0.0019 N.pl3      1 ****  0
    9 C7         1.1824    -0.6237     0.0009 C.ar       1 ****  0
   10 N2         1.1129     0.7052    -0.0014 N.ar       1 ****  0
   11 C8        -0.0521     1.3372    -0.0020 C.ar       1 ****  0
   12 C9        -1.2184     0.5863    -0.0007 C.ar       1 ****  0
   13 C10       -2.5144     1.2357    -0.0008 C.2        1 ****  0
   14 C11       -3.6612     0.5580    -0.0001 C.2        1 ****  0
   15 C12       -3.5157    -0.9609     0.0006 C.2        1 ****  0
   16 O2        -4.4648    -1.7297     0.0006 O.2        1 ****  0
   17 N3        -2.2510    -1.5535     0.0013 N.am       1 ****  0
   18 C13       -1.1195    -0.7861     0.0011 C.ar       1 ****  0
   19 N4         0.0787    -1.3600     0.0022 N.ar       1 ****  0
   20 C14       -2.1380    -2.9810     0.0014 C.3        1 ****  0
   21 C15       -5.0299     1.3974     0.0000 C.ar       1 ****  0
   22 C16       -4.9767     2.8089     0.0004 C.ar       1 ****  0
   23 Cl1       -3.5135     3.7428     0.0008 Cl         1 ****  0
   24 C17       -6.1338     3.5778     0.0006 C.ar       1 ****  0
   25 C18       -7.3835     2.9926     0.0004 C.ar       1 ****  0
   26 C19       -7.4603     1.6145     0.0001 C.ar       1 ****  0
   27 C20       -6.3193     0.8218    -0.0001 C.ar       1 ****  0
   28 Cl2       -6.6619    -0.8493    -0.0006 Cl         1 ****  0
   29 C21        4.9050    -1.3226    -0.0011 C.ar       1 ****  0
   30 H1         8.5089    -0.0213     0.8405 H          1 ****  0
   31 H2         7.4356    -2.0786     0.8604 H          1 ****  0
   32 H3         7.4466    -2.0630    -0.8882 H          1 ****  0
   33 H4         7.1152     1.2305    -0.0217 H          1 ****  0
   34 H5         5.0236     2.5254    -0.0184 H          1 ****  0
   35 H6         2.8627     1.3589    -0.0073 H          1 ****  0
   36 H7         2.4710    -2.3326     0.0044 H          1 ****  0
   37 H8        -0.0921     2.4065    -0.0034 H          1 ****  0
   38 H9        -2.5515     2.3051    -0.0015 H          1 ****  0
   39 H10       -2.7108    -3.2988    -0.8719 H          1 ****  0
   40 H11       -2.7117    -3.2987     0.8743 H          1 ****  0
   41 H12       -1.1962    -3.3115     0.0019 H          1 ****  0
   42 H13       -6.0544     4.6449     0.0009 H          1 ****  0
   43 H14       -8.2701     3.5916     0.0006 H          1 ****  0
   44 H15       -8.4219     1.1452    -0.0001 H          1 ****  0
   45 H16        4.8742    -2.3921     0.0040 H          1 ****  0
@<TRIPOS>BOND
    1     1     2 1
    2     1    30 1
    3     2     3 1
    4     2    31 1
    5     2    32 1
    6     3     4 ar
    7     3    29 ar
    8     4     5 ar
    9     4    33 1
   10     5     6 ar
   11     5    34 1
   12     6     7 ar
   13     6    35 1
   14     7     8 1
   15     7    29 ar
   16     8     9 1
   17     8    36 1
   18     9    10 ar
   19     9    19 ar
   20    10    11 ar
   21    11    12 ar
   22    11    37 1
   23    12    13 1
   24    12    18 ar
   25    13    14 2
   26    13    38 1
   27    14    15 1
   28    14    21 1
   29    15    16 2
   30    15    17 am
   31    17    18 1
   32    17    20 1
   33    18    19 ar
   34    20    39 1
   35    20    40 1
   36    20    41 1
   37    21    22 ar
   38    21    27 ar
   39    22    23 1
   40    22    24 ar
   41    24    25 ar
   42    24    42 1
   43    25    26 ar
   44    25    43 1
   45    26    27 ar
   46    26    44 1
   47    27    28 1
   48    29    45 1
@<TRIPOS>SUBSTRUCTURE
1   ****   1
@<TRIPOS>MOLECULE
1oq5
39  41  1  0  0
SMALL
FORMAL_CHARGES
@<TRIPOS>ATOM
    1 S1         3.0386    -1.3615    -0.0190 S.O2       1 ****  0
    2 C1         1.5086    -0.4916    -0.0002 C.ar       1 ****  0
    3 C2         1.3935     0.8989     0.0005 C.ar       1 ****  0
    4 C3         0.1318     1.5033     0.0018 C.ar       1 ****  0
    5 C4        -1.0253     0.7165     0.0030 C.ar       1 ****  0
    6 C5        -0.8582    -0.6467     0.0045 C.ar       1 ****  0
    7 C6         0.3717    -1.2665     0.0017 C.ar       1 ****  0
    8 N1        -2.3653     1.3202     0.0018 N.ar       1 ****  0
    9 C7        -3.5895     0.7270     0.0005 C.ar       1 ****  0
   10 C8        -4.0547    -0.7669    -0.0002 C.ar       1 ****  0
   11 C9        -3.1954    -1.8542    -0.0010 C.ar       1 ****  0
   12 C10       -3.6248    -3.1699    -0.0010 C.ar       1 ****  0
   13 C11       -4.9817    -3.4293    -0.0005 C.ar       1 ****  0
   14 C12       -5.4606    -4.8510    -0.0004 C.3        1 ****  0
   15 C13       -5.8772    -2.3646    -0.0001 C.ar       1 ****  0
   16 C14       -5.4201    -1.0470     0.0000 C.ar       1 ****  0
   17 C15       -4.5364     1.7385    -0.0004 C.ar       1 ****  0
   18 C16       -3.7835     2.8972     0.0002 C.ar       1 ****  0
   19 C17       -4.3505     4.2995     0.0000 C.3        1 ****  0
   20 F1        -5.7283     4.2443    -0.0878 F          1 ****  0
   21 F2        -3.8500     5.0030    -1.0766 F          1 ****  0
   22 F3        -3.9923     4.9444     1.1666 F          1 ****  0
   23 N2        -2.4929     2.5843     0.0014 N.ar       1 ****  0
   24 N3         3.0180    -2.4220    -1.3616 N.am       1 ****  -1
   25 O1         4.2108    -0.4083    -0.1198 O.2        1 ****  0
   26 O2         3.1422    -2.1882     1.2499 O.2        1 ****  0
   27 H1         2.2746     1.5060     0.0001 H          1 ****  0
   28 H2         0.0514     2.5703     0.0018 H          1 ****  0
   29 H3        -1.7334    -1.2623     0.0080 H          1 ****  0
   30 H4         0.4420    -2.3342     0.0011 H          1 ****  0
   31 H5        -2.1420    -1.6662    -0.0016 H          1 ****  0
   32 H6        -2.9176    -3.9728    -0.0014 H          1 ****  0
   33 H7        -4.9860    -5.3002     0.8725 H          1 ****  0
   34 H8        -4.9867    -5.3001    -0.8737 H          1 ****  0
   35 H9        -6.4568    -4.9351     0.0000 H          1 ****  0
   36 H10       -6.9294    -2.5590     0.0001 H          1 ****  0
   37 H11       -6.1254    -0.2423     0.0003 H          1 ****  0
   38 H12       -5.6022     1.6443    -0.0013 H          1 ****  0
   39 H13        3.5303    -3.2745    -1.3367 H          1 ****  0
@<TRIPOS>BOND
    1     1     2 1
    2     1    24 1
    3     1    25 2
    4     1    26 2
    5     2     3 ar
    6     2     7 ar
    7     3     4 ar
    8     3    27 1
    9     4     5 ar
   10     4    28 1
   11     5     6 ar
   12     5     8 1
   13     6     7 ar
   14     6    29 1
   15     7    30 1
   16     8     9 ar
   17     8    23 ar
   18     9    10 1
   19     9    17 ar
   20    10    11 ar
   21    10    16 ar
   22    11    12 ar
   23    11    31 1
   24    12    13 ar
   25    12    32 1
   26    13    14 1
   27    13    15 ar
   28    14    33 1
   29    14    34 1
   30    14    35 1
   31    15    16 ar
   32    15    36 1
   33    16    37 1
   34    17    18 ar
   35    17    38 1
   36    18    19 1
   37    18    23 ar
   38    19    20 1
   39    19    21 1
   40    19    22 1
   41    24    39 1
@<TRIPOS>SUBSTRUCTURE
1   ****   1
@<TRIPOS>MOLECULE
1owe
38  40  1  0  0
SMALL
FORMAL_CHARGES
@<TRIPOS>ATOM
    1 N1         3.5703    -0.7947    -0.0003 N.2        1 ****  1
    2 C1         2.4693    -1.4293    -0.0003 C.2        1 ****  0
    3 N2         2.4689    -2.8259    -0.0005 N.3        1 ****  0
    4 C2         1.2018    -0.6966    -0.0002 C.ar       1 ****  0
    5 C3         1.2030     0.6931    -0.0001 C.ar       1 ****  0
    6 C4         0.0001     1.3891     0.0000 C.ar       1 ****  0
    7 C5        -1.2034     0.6947    -0.0001 C.ar       1 ****  0
    8 C6        -2.4061     1.3907    -0.0000 C.ar       1 ****  0
    9 C7        -3.6097     0.6963    -0.0001 C.ar       1 ****  0
   10 C8        -3.6109    -0.6934    -0.0002 C.ar       1 ****  0
   11 C9        -2.4080    -1.3893    -0.0002 C.ar       1 ****  0
   12 C10       -1.2046    -0.6949    -0.0002 C.ar       1 ****  0
   13 C11       -0.0018    -1.3910    -0.0002 C.ar       1 ****  0
   14 C12       -4.8747     1.4276    -0.0001 C.2        1 ****  0
   15 O1        -5.9335     0.7900    -0.0002 O.2        1 ****  0
   16 N3        -4.8514     2.8481    -0.0001 N.am       1 ****  0
   17 C13       -6.0093     3.6752    -0.0001 C.ar       1 ****  0
   18 C14       -7.2918     3.1380    -0.0001 C.ar       1 ****  0
   19 C15       -8.3987     3.9786    -0.0001 C.ar       1 ****  0
   20 C16       -8.2240     5.3574    -0.0001 C.ar       1 ****  0
   21 C17       -6.9427     5.8959    -0.0000 C.ar       1 ****  0
   22 C18       -5.8359     5.0554    -0.0000 C.ar       1 ****  0
   23 H1         4.4621    -1.3100    -0.0003 H          1 ****  0
   24 H2         3.5708     0.2353    -0.0002 H          1 ****  0
   25 H3         3.3606    -3.3414    -0.0005 H          1 ****  0
   26 H4         1.5767    -3.3404    -0.0005 H          1 ****  0
   27 H5         2.1561     1.2423    -0.0000 H          1 ****  0
   28 H6         0.0008     2.4891     0.0001 H          1 ****  0
   29 H7        -2.4053     2.4907     0.0001 H          1 ****  0
   30 H8        -4.5640    -1.2426    -0.0003 H          1 ****  0
   31 H9        -2.4087    -2.4893    -0.0003 H          1 ****  0
   32 H10       -0.0026    -2.4910    -0.0003 H          1 ****  0
   33 H11       -3.9318     3.3119    -0.0000 H          1 ****  0
   34 H12       -7.4305     2.0468    -0.0001 H          1 ****  0
   35 H13       -9.4129     3.5526    -0.0002 H          1 ****  0
   36 H14       -9.1001     6.0226    -0.0001 H          1 ****  0
   37 H15       -6.8047     6.9872    -0.0000 H          1 ****  0
   38 H16       -4.8219     5.4819    -0.0000 H          1 ****  0
@<TRIPOS>BOND
    1     1     2 2
    2     1    23 1
    3     1    24 1
    4     2     3 1
    5     2     4 1
    6     3    25 1
    7     3    26 1
    8     4     5 ar
    9     4    13 ar
   10     5     6 ar
   11     5    27 1
   12     6     7 ar
   13     6    28 1
   14     7     8 ar
   15     7    12 ar
   16     8     9 ar
   17     8    29 1
   18     9    10 ar
   19     9    14 1
   20    10    11 ar
   21    10    30 1
   22    11    12 ar
   23    11    31 1
   24    12    13 ar
   25    13    32 1
   26    14    15 2
   27    14    16 am
   28    16    17 1
   29    16    33 1
   30    17    18 ar
   31    17    22 ar
   32    18    19 ar
   33    18    34 1
   34    19    20 ar
   35    19    35 1
   36    20    21 ar
   37    20    36 1
   38    21    22 ar
   39    21    37 1
   40    22    38 1
@<TRIPOS>SUBSTRUCTURE
1   ****   1
@<TRIPOS>MOLECULE
1oyt
54  58  1  0  0
SMALL
FORMAL_CHARGES
@<TRIPOS>ATOM
    1 O1         1.3359    -1.8302    -0.1893 O.2        1 ****  0
    2 C1         0.6543    -0.8099    -0.0476 C.2        1 ****  0
    3 N1         1.1799     0.4544     0.0989 N.am       1 ****  0
    4 C2         2.6269     0.7805     0.1260 C.3        1 ****  0
    5 C3         3.7448    -0.3047     0.0296 C.ar       1 ****  0
    6 C4         3.4962    -1.6682    -0.0910 C.ar       1 ****  0
    7 C5         4.5545    -2.5655    -0.1710 C.ar       1 ****  0
    8 C6         5.8636    -2.1005    -0.1305 C.ar       1 ****  0
    9 F1         6.8836    -2.9642    -0.2075 F          1 ****  0
   10 C7         6.1152    -0.7390    -0.0100 C.ar       1 ****  0
   11 C8         5.0572     0.1582     0.0700 C.ar       1 ****  0
   12 C9         0.1667     1.3620     0.1506 C.2        1 ****  0
   13 O2         0.3276     2.5855     0.2051 O.2        1 ****  0
   14 C10       -1.1117     0.6996    -0.2222 C.3        1 ****  0
   15 C11       -1.0208     0.4940    -1.7170 C.3        1 ****  0
   16 N2        -1.9686    -0.4767    -1.9284 N.3        1 ****  0
   17 C12       -1.9705    -0.7066    -3.3693 C.3        1 ****  0
   18 C13       -1.7116     0.7553    -3.9234 C.3        1 ****  0
   19 C14       -1.4404     1.6057    -2.6360 C.3        1 ****  0
   20 C15       -2.2121    -0.7774    -0.6002 C.3        1 ****  0
   21 C16       -2.8977    -2.1728    -0.5453 C.ar       1 ****  0
   22 C17       -4.0857    -1.8400    -1.1857 C.ar       1 ****  0
   23 C18       -5.2871    -2.3816    -0.7448 C.ar       1 ****  0
   24 C19       -5.2999    -3.2555     0.3359 C.ar       1 ****  0
   25 C20       -4.1119    -3.5880     0.9759 C.ar       1 ****  0
   26 C21       -2.9105    -3.0464     0.5350 C.ar       1 ****  0
   27 C22       -6.5677    -3.8270     0.8011 C.2        1 ****  0
   28 N3        -7.6544    -3.5228     0.2156 N.2        1 ****  1
   29 N4        -6.5836    -4.7055     1.8869 N.3        1 ****  0
   30 C23       -0.8478    -0.8170     0.1432 C.3        1 ****  0
   31 H1         2.8104     1.3598     1.0430 H          1 ****  0
   32 H2         2.8078     1.5103    -0.6768 H          1 ****  0
   33 H3         2.4603    -2.0368    -0.1232 H          1 ****  0
   34 H4         4.3561    -3.6433    -0.2664 H          1 ****  0
   35 H5         7.1516    -0.3717     0.0220 H          1 ****  0
   36 H6         5.2568     1.2357     0.1653 H          1 ****  0
   37 H7        -1.9882     1.2233     0.1871 H          1 ****  0
   38 H8         0.0406     0.3197    -1.9470 H          1 ****  0
   39 H9        -2.9533    -1.0708    -3.7030 H          1 ****  0
   40 H10       -1.1443    -1.3737    -3.6562 H          1 ****  0
   41 H11       -2.6072     1.1287    -4.4417 H          1 ****  0
   42 H12       -0.8253     0.7616    -4.5749 H          1 ****  0
   43 H13       -0.6111     2.3083    -2.8054 H          1 ****  0
   44 H14       -2.3692     2.0765    -2.2816 H          1 ****  0
   45 H15       -2.8256     0.0296    -0.1732 H          1 ****  0
   46 H16       -4.0748    -1.1483    -2.0409 H          1 ****  0
   47 H17       -6.2277    -2.1188    -1.2509 H          1 ****  0
   48 H18       -4.1226    -4.2796     1.8312 H          1 ****  0
   49 H19       -1.9699    -3.3092     1.0411 H          1 ****  0
   50 H20       -8.5452    -3.9238     0.5419 H          1 ****  0
   51 H21       -7.6439    -2.8751    -0.5851 H          1 ****  0
   52 H22       -5.7033    -4.9520     2.3613 H          1 ****  0
   53 H23       -7.4746    -5.1064     2.2130 H          1 ****  0
   54 H24       -1.1590    -1.2409     1.1093 H          1 ****  0
@<TRIPOS>BOND
    1     1     2 2
    2     2     3 am
    3     3     4 1
    4     3    12 am
    5     4     5 1
    6     4    31 1
    7     4    32 1
    8     5     6 ar
    9     5    11 ar
   10     6     7 ar
   11     6    33 1
   12     7     8 ar
   13     7    34 1
   14     8     9 1
   15     8    10 ar
   16    10    11 ar
   17    10    35 1
   18    11    36 1
   19    12    13 2
   20    14    12 1
   21    14    15 1
   22    14    30 1
   23    14    37 1
   24    15    16 1
   25    15    19 1
   26    15    38 1
   27    16    17 1
   28    17    18 1
   29    17    39 1
   30    17    40 1
   31    18    19 1
   32    18    41 1
   33    18    42 1
   34    19    43 1
   35    19    44 1
   36    20    16 1
   37    20    21 1
   38    20    30 1
   39    20    45 1
   40    21    22 ar
   41    21    26 ar
   42    22    23 ar
   43    22    46 1
   44    23    24 ar
   45    23    47 1
   46    24    25 ar
   47    24    27 1
   48    25    26 ar
   49    25    48 1
   50    26    49 1
   51    27    28 2
   52    27    29 1
   53    28    50 1
   54    28    51 1
   55    29    52 1
   56    29    53 1
   57    30     2 1
   58    30    54 1
@<TRIPOS>SUBSTRUCTURE
1   ****   1
@<TRIPOS>MOLECULE
1p2y
27  28  1  0  0
SMALL
FORMAL_CHARGES
@<TRIPOS>ATOM
    1 N1         1.1738    -0.6716    -0.0002 N.ar       1 ****  0
    2 C1         1.1910     0.6567     0.0000 C.ar       1 ****  0
    3 C2         0.0032     1.3796     0.0002 C.ar       1 ****  0
    4 C3        -1.2070     0.7029     0.0000 C.ar       1 ****  0
    5 C4        -1.1900    -0.6854    -0.0002 C.ar       1 ****  0
    6 C5         0.0304    -1.3497    -0.0004 C.ar       1 ****  0
    7 N2         0.8245     3.3868     1.1107 N.4        1 ****  1
    8 C6         0.0317     2.8750     0.0007 C.3        1 ****  0
    9 C7         0.8266     3.4020    -1.1779 C.3        1 ****  0
   10 C8         2.2578     3.0041    -0.7807 C.3        1 ****  0
   11 C9         2.2260     3.0362     0.7756 C.3        1 ****  0
   12 C10        0.4190     2.8243     2.4058 C.3        1 ****  0
   13 H1         2.1534     1.1895     0.0001 H          1 ****  0
   14 H2        -2.1593     1.2536     0.0002 H          1 ****  0
   15 H3        -2.1322    -1.2532    -0.0004 H          1 ****  0
   16 H4         0.0506    -2.4495    -0.0006 H          1 ****  0
   17 H5         0.6940     4.4025     1.2219 H          1 ****  0
   18 H6        -1.0256     3.1781     0.0166 H          1 ****  0
   19 H7         0.5290     2.8876    -2.1036 H          1 ****  0
   20 H8         0.7380     4.4964    -1.2444 H          1 ****  0
   21 H9         2.9783     3.7436    -1.1601 H          1 ****  0
   22 H10        2.4816     1.9867    -1.1342 H          1 ****  0
   23 H11        2.4762     2.0433     1.1775 H          1 ****  0
   24 H12        2.9109     3.8112     1.1501 H          1 ****  0
   25 H13        0.5247     1.7308     2.3511 H          1 ****  0
   26 H14       -0.6413     3.0687     2.5671 H          1 ****  0
   27 H15        1.0354     3.2299     3.2216 H          1 ****  0
@<TRIPOS>BOND
    1     1     2 ar
    2     1     6 ar
    3     2     3 ar
    4     2    13 1
    5     3     4 ar
    6     3     8 1
    7     4     5 ar
    8     4    14 1
    9     5     6 ar
   10     5    15 1
   11     6    16 1
   12     7     8 1
   13     7    11 1
   14     7    12 1
   15     7    17 1
   16     8     9 1
   17     8    18 1
   18     9    10 1
   19     9    19 1
   20     9    20 1
   21    10    11 1
   22    10    21 1
   23    10    22 1
   24    11    23 1
   25    11    24 1
   26    12    25 1
   27    12    26 1
   28    12    27 1
@<TRIPOS>SUBSTRUCTURE
1   ****   1
@<TRIPOS>MOLECULE
1p62
29  30  1  0  0
SMALL
FORMAL_CHARGES
@<TRIPOS>ATOM
    1 O1         1.5389    -1.7922    -1.9352 O.3        1 ****  0
    2 C1         1.5184    -2.0289    -0.5255 C.3        1 ****  0
    3 C2         0.6656    -0.9497     0.1616 C.3        1 ****  0
    4 O2         1.1573     0.4104    -0.0717 O.3        1 ****  0
    5 C3         0.1116     0.9406     0.8330 C.3        1 ****  0
    6 N1         0.0312     2.4910     0.4648 N.am       1 ****  0
    7 C4         1.2738     3.0167     0.7956 C.2        1 ****  0
    8 C5         1.3405     4.1910     1.4161 C.2        1 ****  0
    9 C6         0.1105     4.9174     1.7444 C.2        1 ****  0
   10 N2        -1.0265     4.4323     1.4396 N.am       1 ****  0
   11 C7        -1.1225     3.1993     0.7869 C.2        1 ****  0
   12 O3        -2.2328     2.7385     0.4960 O.2        1 ****  0
   13 N3         0.1880     6.1785     2.4110 N.3        1 ****  0
   14 C8        -1.1841     0.3486     0.3201 C.3        1 ****  0
   15 F1        -2.4462     0.7818    -0.0189 F          1 ****  0
   16 F2        -1.0854     0.2253     1.6891 F          1 ****  0
   17 C9        -0.7732    -0.9293    -0.3347 C.3        1 ****  0
   18 O4        -1.5264    -2.0583     0.1114 O.3        1 ****  0
   19 H1         1.9287    -0.9003    -2.1158 H          1 ****  0
   20 H2         1.0849    -3.0201    -0.3261 H          1 ****  0
   21 H3         2.5445    -1.9908    -0.1310 H          1 ****  0
   22 H4         0.7284    -1.2233     1.2252 H          1 ****  0
   23 H5         0.2790     0.6551     1.8820 H          1 ****  0
   24 H6         2.1935     2.4671     0.5467 H          1 ****  0
   25 H7         2.3188     4.6172     1.6831 H          1 ****  0
   26 H8         1.1045     6.5767     2.6606 H          1 ****  0
   27 H9        -0.6753     6.6904     2.6426 H          1 ****  0
   28 H10       -0.9178    -0.9819    -1.4238 H          1 ****  0
   29 H11       -1.5160    -2.0624     1.1013 H          1 ****  0
@<TRIPOS>BOND
    1     1     2 1
    2     1    19 1
    3     2    20 1
    4     2    21 1
    5     3     2 1
    6     3     4 1
    7     3    17 1
    8     3    22 1
    9     5     4 1
   10     5     6 1
   11     5    14 1
   12     5    23 1
   13     6     7 1
   14     6    11 am
   15     7     8 2
   16     7    24 1
   17     8     9 1
   18     8    25 1
   19     9    10 2
   20     9    13 1
   21    10    11 am
   22    11    12 2
   23    13    26 1
   24    13    27 1
   25    14    15 1
   26    14    16 1
   27    14    17 1
   28    17    18 1
   29    17    28 1
   30    18    29 1
@<TRIPOS>SUBSTRUCTURE
1   ****   1
@<TRIPOS>MOLECULE
1pmn
64  68  1  0  0
SMALL
FORMAL_CHARGES
@<TRIPOS>ATOM
    1 N1         0.6289    -1.0399    -0.1069 N.ar       1 ****  0
    2 C1         1.0884     0.2179    -0.0501 C.ar       1 ****  0
    3 N2         0.0357     1.0427     0.0228 N.ar       1 ****  0
    4 C2        -1.0793     0.3256     0.0206 C.ar       1 ****  0
    5 C3        -0.7018    -1.0363    -0.0408 C.ar       1 ****  0
    6 C4         1.3926    -2.1957    -0.4944 C.3        1 ****  0
    7 C5         1.7108    -3.1208     0.6989 C.3        1 ****  0
    8 C6         2.2771    -4.4393     0.1444 C.3        1 ****  0
    9 C7         2.5968     0.8027    -0.0640 C.3        1 ****  0
   10 C8         3.4938     0.4637    -1.3079 C.3        1 ****  0
   11 C9         4.0795    -0.9729    -1.2601 C.3        1 ****  0
   12 N3         4.8554    -1.1979    -0.0118 N.4        1 ****  1
   13 C10        4.0013    -0.9636     1.1877 C.3        1 ****  0
   14 C11        3.4485     0.4792     1.2037 C.3        1 ****  0
   15 C12        5.3517    -2.5882     0.0049 C.3        1 ****  0
   16 C13       -2.5018     0.9365     0.0580 C.ar       1 ****  0
   17 C14       -1.6389    -2.3141    -0.0557 C.ar       1 ****  0
   18 C15       -2.6944     2.3258     0.0482 C.ar       1 ****  0
   19 C16       -3.9867     2.8536     0.0308 C.ar       1 ****  0
   20 C17       -5.0979     2.0178     0.0281 C.ar       1 ****  0
   21 C18       -4.9171     0.6478     0.0474 C.ar       1 ****  0
   22 C19       -3.6267     0.1403     0.0576 C.ar       1 ****  0
   23 Cl1       -4.2335     4.5568     0.0121 Cl         1 ****  0
   24 Cl2       -6.6958     2.6613    -0.0003 Cl         1 ****  0
   25 C20       -1.1179    -3.6092    -0.0594 C.ar       1 ****  0
   26 C21       -1.9502    -4.7101    -0.0289 C.ar       1 ****  0
   27 N4        -3.2567    -4.5211    -0.0106 N.ar       1 ****  0
   28 C22       -3.7566    -3.2937    -0.0170 C.ar       1 ****  0
   29 N5        -2.9505    -2.2342    -0.0321 N.ar       1 ****  0
   30 N6        -5.1842    -3.0603    -0.0073 N.pl3      1 ****  0
   31 C23       -6.2049    -4.1504     0.0049 C.3        1 ****  0
   32 C24       -5.8646    -5.4297    -0.7759 C.3        1 ****  0
   33 C25       -5.8592    -5.4329     0.7781 C.3        1 ****  0
   34 H1         2.3192    -1.8724    -0.9502 H          1 ****  0
   35 H2         0.8373    -2.7543    -1.2403 H          1 ****  0
   36 H3         0.8201    -3.3182     1.2458 H          1 ****  0
   37 H4         2.4368    -2.6568     1.3274 H          1 ****  0
   38 H5         3.1733    -4.2546    -0.4041 H          1 ****  0
   39 H6         1.5584    -4.9142    -0.4848 H          1 ****  0
   40 H7         2.5058    -5.1005     0.9732 H          1 ****  0
   41 H8         2.4610     1.8935    -0.0719 H          1 ****  0
   42 H9         2.9036     0.5769    -2.2146 H          1 ****  0
   43 H10        4.3092     1.1770    -1.3647 H          1 ****  0
   44 H11        4.7232    -1.1248    -2.1100 H          1 ****  0
   45 H12        3.2733    -1.6894    -1.3119 H          1 ****  0
   46 H13        5.6563    -0.5613     0.0114 H          1 ****  0
   47 H14        4.5825    -1.1314     2.0778 H          1 ****  0
   48 H15        3.1778    -1.6609     1.1809 H          1 ****  0
   49 H16        2.8393     0.6158     2.0872 H          1 ****  0
   50 H17        4.2768     1.1769     1.2646 H          1 ****  0
   51 H18        5.9841    -2.7556    -0.8404 H          1 ****  0
   52 H19        4.5261    -3.2663    -0.0261 H          1 ****  0
   53 H20        5.9140    -2.7554     0.9069 H          1 ****  0
   54 H21       -1.8494     2.9822     0.0542 H          1 ****  0
   55 H22       -5.7600    -0.0113     0.0544 H          1 ****  0
   56 H23       -3.4980    -0.9219     0.0655 H          1 ****  0
   57 H24       -0.0576    -3.7507    -0.0862 H          1 ****  0
   58 H25       -1.5434    -5.6997    -0.0203 H          1 ****  0
   59 H26       -5.5145    -2.0873    -0.0168 H          1 ****  0
   60 H27       -7.2707    -3.8916     0.0027 H          1 ****  0
   61 H28       -4.9800    -5.3612    -1.0522 H          1 ****  0
   62 H29       -6.6692    -5.8135    -1.0486 H          1 ****  0
   63 H30       -6.6592    -5.8172     1.0535 H          1 ****  0
   64 H31       -4.9701    -5.3647     1.0499 H          1 ****  0
@<TRIPOS>BOND
    1     1     2 ar
    2     1     5 ar
    3     1     6 1
    4     2     3 ar
    5     3     4 ar
    6     4     5 ar
    7     4    16 1
    8     5    17 1
    9     6     7 1
   10     6    34 1
   11     6    35 1
   12     7     8 1
   13     7    36 1
   14     7    37 1
   15     8    38 1
   16     8    39 1
   17     8    40 1
   18     9     2 1
   19     9    10 1
   20     9    14 1
   21     9    41 1
   22    10    11 1
   23    10    42 1
   24    10    43 1
   25    11    12 1
   26    11    44 1
   27    11    45 1
   28    12    13 1
   29    12    15 1
   30    12    46 1
   31    13    14 1
   32    13    47 1
   33    13    48 1
   34    14    49 1
   35    14    50 1
   36    15    51 1
   37    15    52 1
   38    15    53 1
   39    16    18 ar
   40    16    22 ar
   41    17    25 ar
   42    17    29 ar
   43    18    19 ar
   44    18    54 1
   45    19    20 ar
   46    19    23 1
   47    20    21 ar
   48    20    24 1
   49    21    22 ar
   50    21    55 1
   51    22    56 1
   52    25    26 ar
   53    25    57 1
   54    26    27 ar
   55    26    58 1
   56    27    28 ar
   57    28    29 ar
   58    28    30 1
   59    30    31 1
   60    30    59 1
   61    31    32 1
   62    31    33 1
   63    31    60 1
   64    32    33 1
   65    32    61 1
   66    32    62 1
   67    33    63 1
   68    33    64 1
@<TRIPOS>SUBSTRUCTURE
1   ****   1
@<TRIPOS>MOLECULE
1q1g
37  39  1  0  0
SMALL
FORMAL_CHARGES
@<TRIPOS>ATOM
    1 C1         3.5526    -5.8820    -3.2296 C.3        1 ****  0
    2 S1         2.1837    -5.0800    -2.3610 S.3        1 ****  0
    3 C2         0.7466    -6.1787    -2.3536 C.3        1 ****  0
    4 C3        -0.4126    -5.4920    -1.6157 C.3        1 ****  0
    5 N1        -0.0849    -5.1387    -0.2116 N.4        1 ****  1
    6 C4        -1.7189    -3.6603    -1.1672 C.3        1 ****  0
    7 O1        -2.7756    -4.6078    -0.9869 O.3        1 ****  0
    8 C5        -0.8176    -4.1817    -2.2590 C.3        1 ****  0
    9 O2        -1.4993    -4.3867    -3.4977 O.3        1 ****  0
   10 C6        -0.7294    -3.8043    -0.0005 C.3        1 ****  0
   11 C7         0.2734    -2.6941    -0.0004 C.ar       1 ****  0
   12 C8         1.6613    -2.8281    -0.0005 C.ar       1 ****  0
   13 N2         2.2029    -1.6011    -0.0004 N.ar       1 ****  0
   14 C9         1.2137    -0.7091    -0.0002 C.ar       1 ****  0
   15 C10        1.2709     0.7121    -0.0001 C.2        1 ****  0
   16 O3         2.3419     1.3292    -0.0001 O.2        1 ****  0
   17 N3         0.0320     1.3769     0.0001 N.am       1 ****  0
   18 C11       -1.1984     0.6164     0.0000 C.2        1 ****  0
   19 N4        -1.2090    -0.6682    -0.0001 N.2        1 ****  0
   20 C12        0.0021    -1.3428    -0.0002 C.ar       1 ****  0
   21 H1         3.2533    -6.0999    -4.2655 H          1 ****  0
   22 H2         3.8124    -6.8209    -2.7187 H          1 ****  0
   23 H3         4.4267    -5.2142    -3.2344 H          1 ****  0
   24 H4         0.4451    -6.3956    -3.3890 H          1 ****  0
   25 H5         1.0033    -7.1170    -1.8402 H          1 ****  0
   26 H6        -1.2188    -6.2390    -1.6622 H          1 ****  0
   27 H7         0.9353    -5.0609    -0.0935 H          1 ****  0
   28 H8        -0.4903    -5.8328     0.4325 H          1 ****  0
   29 H9        -2.1717    -2.6684    -1.3127 H          1 ****  0
   30 H10       -2.4076    -5.4860    -0.7160 H          1 ****  0
   31 H11        0.0033    -3.5077    -2.5451 H          1 ****  0
   32 H12       -2.3056    -4.9345    -3.3249 H          1 ****  0
   33 H13       -1.2265    -3.7437     0.9789 H          1 ****  0
   34 H14        2.2169    -3.7775    -0.0006 H          1 ****  0
   35 H15        3.2102    -1.3857    -0.0004 H          1 ****  0
   36 H16        0.0005     2.4064     0.0002 H          1 ****  0
   37 H17       -2.1570     1.1560     0.0001 H          1 ****  0
@<TRIPOS>BOND
    1     1     2 1
    2     1    21 1
    3     1    22 1
    4     1    23 1
    5     2     3 1
    6     3    24 1
    7     3    25 1
    8     4     3 1
    9     4     5 1
   10     4     8 1
   11     4    26 1
   12     5    27 1
   13     5    28 1
   14     6     7 1
   15     6     8 1
   16     6    10 1
   17     6    29 1
   18     7    30 1
   19     8     9 1
   20     8    31 1
   21     9    32 1
   22    10     5 1
   23    10    11 1
   24    10    33 1
   25    11    12 ar
   26    11    20 ar
   27    12    13 ar
   28    12    34 1
   29    13    14 ar
   30    13    35 1
   31    14    15 1
   32    14    20 ar
   33    15    16 2
   34    15    17 am
   35    17    18 1
   36    17    36 1
   37    18    19 2
   38    18    37 1
   39    19    20 1
@<TRIPOS>SUBSTRUCTURE
1   ****   1
@<TRIPOS>MOLECULE
1q41
32  35  1  0  0
SMALL
FORMAL_CHARGES
@<TRIPOS>ATOM
    1 C1         1.1487    -0.6928    -0.0626 C.ar       1 ****  0
    2 C2         2.4585    -1.2745     0.0417 C.2        1 ****  0
    3 C3         1.2354     0.6800    -0.0184 C.ar       1 ****  0
    4 N1         2.6056     1.1009     0.0470 N.pl3      1 ****  0
    5 C4         0.1003     1.4763    -0.0428 C.ar       1 ****  0
    6 C5        -1.1338     0.8313    -0.1068 C.ar       1 ****  0
    7 C6        -1.2189    -0.5630    -0.1396 C.ar       1 ****  0
    8 C7        -0.0707    -1.3507    -0.1058 C.ar       1 ****  0
    9 C8         3.4490    -0.0985     0.0285 C.2        1 ****  0
   10 C9         4.8104    -0.0610    -0.0241 C.2        1 ****  0
   11 C10        5.7543     1.0962     0.0348 C.2        1 ****  0
   12 N2         7.0581     0.6028    -0.1187 N.am       1 ****  0
   13 C11        7.0196    -0.7847    -0.1962 C.ar       1 ****  0
   14 C12        5.7075    -1.2323    -0.1240 C.ar       1 ****  0
   15 C13        8.0848    -1.6568    -0.3033 C.ar       1 ****  0
   16 C14        7.7997    -3.0207    -0.3390 C.ar       1 ****  0
   17 C15        6.4822    -3.4769    -0.2616 C.ar       1 ****  0
   18 C16        5.4171    -2.5829    -0.1552 C.ar       1 ****  0
   19 O1         5.5041     2.2408     0.4212 O.2        1 ****  0
   20 N3         2.5884    -2.5275     0.2662 N.2        1 ****  0
   21 O2         1.6572    -3.4233     0.1395 O.3        1 ****  0
   22 H1         2.9174     2.0708     0.0494 H          1 ****  0
   23 H2         0.1691     2.5437    -0.0136 H          1 ****  0
   24 H3        -2.0311     1.4138    -0.1312 H          1 ****  0
   25 H4        -2.1793    -1.0320    -0.1914 H          1 ****  0
   26 H5        -0.1275    -2.4191    -0.1128 H          1 ****  0
   27 H6         7.8875     1.1514    -0.1009 H          1 ****  0
   28 H7         9.0917    -1.2988    -0.3569 H          1 ****  0
   29 H8         8.5995    -3.7261    -0.4267 H          1 ****  0
   30 H9         6.2868    -4.5286    -0.2843 H          1 ****  0
   31 H10        4.4071    -2.9318    -0.0994 H          1 ****  0
   32 H11        0.9375    -3.0533    -0.3760 H          1 ****  0
@<TRIPOS>BOND
    1     1     2 1
    2     1     3 ar
    3     1     8 ar
    4     2     9 1
    5     2    20 2
    6     3     4 1
    7     3     5 ar
    8     4     9 1
    9     4    22 1
   10     5     6 ar
   11     5    23 1
   12     6     7 ar
   13     6    24 1
   14     7     8 ar
   15     7    25 1
   16     8    26 1
   17     9    10 2
   18    10    11 1
   19    10    14 1
   20    11    12 am
   21    11    19 2
   22    12    13 1
   23    12    27 1
   24    13    14 ar
   25    13    15 ar
   26    14    18 ar
   27    15    16 ar
   28    15    28 1
   29    16    17 ar
   30    16    29 1
   31    17    18 ar
   32    17    30 1
   33    18    31 1
   34    20    21 1
   35    21    32 1
@<TRIPOS>SUBSTRUCTURE
1   ****   1
@<TRIPOS>MOLECULE
1q4g
30  31  1  0  0
SMALL
FORMAL_CHARGES
@<TRIPOS>ATOM
    1 C1         1.2041    -0.6951    -0.0001 C.ar       1 ****  0
    2 C2         0.0011    -5.6349    -0.0003 C.ar       1 ****  0
    3 C3         1.2045    -4.9398    -0.0003 C.ar       1 ****  0
    4 C4         1.2036    -3.5496    -0.0003 C.ar       1 ****  0
    5 C5         0.2959     2.6141     1.0193 C.3        1 ****  0
    6 C6         1.3646     3.5322     0.2328 C.2        1 ****  0.0000
    7 C7        -1.0172     3.4513     1.0182 C.3        1 ****  0
    8 C8         1.2042     0.6944    -0.0000 C.ar       1 ****  0
    9 C9        -0.0001     1.3891     0.0000 C.ar       1 ****  0
   10 C10       -1.2032     0.6954    -0.0000 C.ar       1 ****  0
   11 C11       -1.2034    -0.6955    -0.0001 C.ar       1 ****  0
   12 C12       -0.0005    -1.3895    -0.0002 C.ar       1 ****  0
   13 C13       -0.0001    -2.8556    -0.0002 C.ar       1 ****  0
   14 C14       -1.2040    -3.5512    -0.0002 C.ar       1 ****  0
   15 C15       -1.2031    -4.9408    -0.0003 C.ar       1 ****  0
   16 O1         1.4428     4.5823     0.8805 O.co2      1 ****  -0.50
   17 O2         2.4866     3.0191    -0.3399 O.co2      1 ****  -0.50
   18 H1         2.1565    -1.2455    -0.0002 H          1 ****  0
   19 H2         0.0017    -6.7349    -0.0003 H          1 ****  0
   20 H3         2.1573    -5.4893    -0.0003 H          1 ****  0
   21 H4         2.1558    -2.9990    -0.0003 H          1 ****  0
   22 H5         0.5897     2.3229     2.0385 H          1 ****  0
   23 H6        -1.0916     4.5429     0.9052 H          1 ****  0
   24 H7        -0.6736     3.2144     2.0360 H          1 ****  0
   25 H8        -2.0018     2.9929     0.8436 H          1 ****  0
   26 H9         2.1568     1.2445    -0.0000 H          1 ****  0
   27 H10       -2.1557     1.2457    -0.0000 H          1 ****  0
   28 H11       -2.1560    -1.2456    -0.0002 H          1 ****  0
   29 H12       -2.1569    -3.0017    -0.0002 H          1 ****  0
   30 H13       -2.1553    -5.4915    -0.0003 H          1 ****  0
@<TRIPOS>BOND
    1     1     8 ar
    2     1    12 ar
    3     1    18 1
    4     2     3 ar
    5     2    15 ar
    6     2    19 1
    7     3     4 ar
    8     3    20 1
    9     4    13 ar
   10     4    21 1
   11     5     6 1
   12     5     7 1
   13     5     9 1
   14     5    22 1
   15     6    16 ar
   16     6    17 ar
   17     7    23 1
   18     7    24 1
   19     7    25 1
   20     8     9 ar
   21     8    26 1
   22     9    10 ar
   23    10    11 ar
   24    10    27 1
   25    11    12 ar
   26    11    28 1
   27    12    13 1
   28    13    14 ar
   29    14    15 ar
   30    14    29 1
   31    15    30 1
@<TRIPOS>SUBSTRUCTURE
1   ****   1
@<TRIPOS>MOLECULE
1r1h
55  56  1  0  0
SMALL
FORMAL_CHARGES
@<TRIPOS>ATOM
    1 C1         2.0975    -0.0446    -4.6422 C.3        1 ****  0
    2 C2         3.4074    -0.8467    -4.5348 C.3        1 ****  0
    3 N1         3.3706    -1.9726    -5.4779 N.4        1 ****  1
    4 P1         3.5615    -1.4289    -2.9938 P.3        1 ****  0
    5 O1         2.3778    -2.3320    -2.7035 O.2        1 ****  -1
    6 O2         4.7321    -2.1543    -2.8997 O.2        1 ****  0
    7 C3         3.5961    -0.1326    -1.9343 C.3        1 ****  0
    8 C4         3.7195    -0.5800    -0.4436 C.3        1 ****  0
    9 C5         4.9764    -1.3759    -0.2791 C.2        1 ****  0
   10 O3         4.9033    -2.5846    -0.0299 O.2        1 ****  0
   11 N2         6.2216    -0.7632    -0.4769 N.am       1 ****  0
   12 C6         7.5067    -0.6777     0.3093 C.3        1 ****  0
   13 C7         7.6450    -2.0719     1.0349 C.3        1 ****  0
   14 C8         8.6037    -0.6421    -0.7477 C.2        1 ****  0.0000
   15 O4         9.7565    -1.0840    -0.6837 O.co2      1 ****  -0.50
   16 O5         8.3891     0.6449    -1.1235 O.co2      1 ****  -0.50
   17 C9         2.5134    -1.4510    -0.0040 C.3        1 ****  0
   18 C10        1.2032    -0.6950    -0.0001 C.ar       1 ****  0
   19 C11        1.2040     0.6949     0.0001 C.ar       1 ****  0
   20 C12        0.0006     1.3899     0.0001 C.ar       1 ****  0
   21 C13       -1.2029     0.6946    -0.0001 C.ar       1 ****  0
   22 C14       -1.2036    -0.6951    -0.0003 C.ar       1 ****  0
   23 C15       -0.0001    -1.3901    -0.0003 C.ar       1 ****  0
   24 C16       -2.4726     1.4278    -0.0001 C.ar       1 ****  0
   25 C17       -2.4733     2.8169     0.0001 C.ar       1 ****  0
   26 C18       -3.6779     3.5115     0.0002 C.ar       1 ****  0
   27 C19       -4.8805     2.8160     0.0000 C.ar       1 ****  0
   28 C20       -4.8799     1.4256    -0.0002 C.ar       1 ****  0
   29 C21       -3.6765     0.7315    -0.0002 C.ar       1 ****  0
   30 H1         1.2458    -0.6971    -4.3999 H          1 ****  0
   31 H2         1.9845     0.3397    -5.6667 H          1 ****  0
   32 H3         2.1243     0.7986    -3.9363 H          1 ****  0
   33 H4         4.2609    -0.1954    -4.7744 H          1 ****  0
   34 H5         3.2659    -1.6145    -6.4379 H          1 ****  0
   35 H6         2.5741    -2.5854    -5.2518 H          1 ****  0
   36 H7         4.2466    -2.5097    -5.4066 H          1 ****  0
   37 H8         2.6754     0.4571    -2.0550 H          1 ****  0
   38 H9         4.4494     0.5146    -2.1849 H          1 ****  0
   39 H10        3.7383     0.3226     0.1848 H          1 ****  0
   40 H11        6.2639     0.2446    -0.6857 H          1 ****  0
   41 H12        7.5704     0.1672     1.0109 H          1 ****  0
   42 H13        6.7931    -2.7178     1.2941 H          1 ****  0
   43 H14        7.6875    -1.2292     1.7406 H          1 ****  0
   44 H15        8.5798    -2.6493     1.0871 H          1 ****  0
   45 H16        2.4262    -2.3107    -0.6847 H          1 ****  0
   46 H17        2.7022    -1.8407     1.0072 H          1 ****  0
   47 H18        2.1568     1.2446     0.0003 H          1 ****  0
   48 H19        0.0005     2.4899     0.0003 H          1 ****  0
   49 H20       -2.1564    -1.2448    -0.0004 H          1 ****  0
   50 H21       -0.0001    -2.4901    -0.0004 H          1 ****  0
   51 H22       -1.5210     3.3674     0.0003 H          1 ****  0
   52 H23       -3.6786     4.6115     0.0003 H          1 ****  0
   53 H24       -5.8334     3.3654     0.0000 H          1 ****  0
   54 H25       -5.8323     0.8752    -0.0004 H          1 ****  0
   55 H26       -3.6758    -0.3685    -0.0004 H          1 ****  0
@<TRIPOS>BOND
    1     1     2 1
    2     1    30 1
    3     1    31 1
    4     1    32 1
    5     2     3 1
    6     2     4 1
    7     2    33 1
    8     3    34 1
    9     3    35 1
   10     3    36 1
   11     4     5 1
   12     4     6 2
   13     4     7 1
   14     7     8 1
   15     7    37 1
   16     7    38 1
   17     8     9 1
   18     8    17 1
   19     8    39 1
   20     9    10 2
   21     9    11 am
   22    11    12 1
   23    11    40 1
   24    12    13 1
   25    12    14 1
   26    12    41 1
   27    13    42 1
   28    13    43 1
   29    13    44 1
   30    14    15 ar
   31    14    16 ar
   32    17    18 1
   33    17    45 1
   34    17    46 1
   35    18    19 ar
   36    18    23 ar
   37    19    20 ar
   38    19    47 1
   39    20    21 ar
   40    20    48 1
   41    21    22 ar
   42    21    24 1
   43    22    23 ar
   44    22    49 1
   45    23    50 1
   46    24    25 ar
   47    24    29 ar
   48    25    26 ar
   49    25    51 1
   50    26    27 ar
   51    26    52 1
   52    27    28 ar
   53    27    53 1
   54    28    29 ar
   55    28    54 1
   56    29    55 1
@<TRIPOS>SUBSTRUCTURE
1   ****   1
@<TRIPOS>MOLECULE
1r55
51  50  1  0  0
SMALL
FORMAL_CHARGES
@<TRIPOS>ATOM
    1 N1         7.7810     0.3573    -0.6362 N.am       1 ****  0
    2 C1         4.5617    -1.0780    -3.8937 C.3        1 ****  0
    3 O1         9.6897    -1.2436     0.0379 O.2        1 ****  0
    4 C2         6.5878     0.7879    -0.0434 C.2        1 ****  0
    5 O2         0.4960    -0.1494    -0.1369 O.3        1 ****  -1
    6 C3        10.1615     5.0898    -2.1161 C.3        1 ****  0
    7 C4         9.8226     3.5133    -1.8094 C.3        1 ****  0
    8 C5         9.6925     1.0763    -2.7619 C.3        1 ****  0
    9 C6        10.7908     2.6831    -1.1702 C.3        1 ****  0
   10 C7        10.0541    -0.0629    -0.0123 C.2        1 ****  0
   11 C8        12.3231    -0.7903     0.5800 C.3        1 ****  0
   12 N2         1.6032     0.5758    -0.1552 N.am       1 ****  0
   13 C9         2.8288    -0.0111     0.1618 C.2        1 ****  0
   14 O3         2.8802    -1.2103     0.4612 O.2        1 ****  0
   15 C10        3.9367     0.3972    -0.8440 C.3        1 ****  0
   16 O4         3.9410     1.8971    -0.7759 O.3        1 ****  0
   17 C11        5.3291    -0.0385    -0.1481 C.3        1 ****  0
   18 C12        5.2100    -0.8862    -1.4674 C.3        1 ****  0
   19 C13        4.8090    -0.0857    -2.7450 C.3        1 ****  0
   20 C14        5.8951     0.9036    -3.1862 C.3        1 ****  0
   21 O5         6.5868     1.8102     0.6533 O.2        1 ****  0
   22 C15        8.4064     2.9994    -1.7828 C.3        1 ****  0
   23 N3        11.3867     0.2521     0.2764 N.am       1 ****  0
   24 H1         7.7697    -0.4304    -1.2997 H          1 ****  0
   25 H2         3.7473    -1.7663    -3.6237 H          1 ****  0
   26 H3         5.4783    -1.6518    -4.0952 H          1 ****  0
   27 H4         4.2784    -0.5204    -4.7986 H          1 ****  0
   28 H5         9.2611    -0.2946    -2.0721 H          1 ****  0
   29 H6         8.7498     0.5768    -3.0297 H          1 ****  0
   30 H7        10.4673     0.3196    -2.5691 H          1 ****  0
   31 H8        10.0123     1.7200    -3.5947 H          1 ****  0
   32 H9        11.5741     1.9401    -0.9594 H          1 ****  0
   33 H10       10.6262     3.2933    -0.2699 H          1 ****  0
   34 H11       11.0930     3.3236    -2.0118 H          1 ****  0
   35 H12       12.2844    -1.4666    -0.2867 H          1 ****  0
   36 H13       11.8802    -1.3298     1.4301 H          1 ****  0
   37 H14       13.3424    -0.4350     0.7916 H          1 ****  0
   38 H15        1.5601     1.5744    -0.4037 H          1 ****  0
   39 H16        3.7966    -0.0303    -1.8478 H          1 ****  0
   40 H17        3.1676     2.4598    -0.5203 H          1 ****  0
   41 H18        5.3959    -0.8106     0.6325 H          1 ****  0
   42 H19        6.1736    -1.3828    -1.6539 H          1 ****  0
   43 H20        4.4692    -1.6836    -1.3078 H          1 ****  0
   44 H21        3.9046     0.4917    -2.5026 H          1 ****  0
   45 H22        5.5630     1.4543    -4.0786 H          1 ****  0
   46 H23        6.8276     0.3643    -3.4093 H          1 ****  0
   47 H24        6.0807     1.6191    -2.3715 H          1 ****  0
   48 H25        8.2534     3.6098    -0.8806 H          1 ****  0
   49 H26        7.4630     2.5004    -2.0492 H          1 ****  0
   50 H27        8.7290     3.6445    -2.6133 H          1 ****  0
   51 H28       11.6954     1.2347     0.2708 H          1 ****  0
@<TRIPOS>BOND
    1     1     4 am
    2     1    24 1
    3     2    19 1
    4     2    25 1
    5     2    26 1
    6     2    27 1
    7     3    10 2
    8     4    17 1
    9     4    21 2
   10     5    12 1
   11     6     1 1
   12     6     7 1
   13     6    10 1
   14     6    28 1
   15     7     8 1
   16     7     9 1
   17     7    22 1
   18     8    29 1
   19     8    30 1
   20     8    31 1
   21     9    32 1
   22     9    33 1
   23     9    34 1
   24    10    23 am
   25    11    23 1
   26    11    35 1
   27    11    36 1
   28    11    37 1
   29    12    13 am
   30    12    38 1
   31    13    14 2
   32    13    15 1
   33    15    16 1
   34    15    17 1
   35    15    39 1
   36    16    40 1
   37    17    18 1
   38    17    41 1
   39    18    19 1
   40    18    42 1
   41    18    43 1
   42    19    20 1
   43    19    44 1
   44    20    45 1
   45    20    46 1
   46    20    47 1
   47    22    48 1
   48    22    49 1
   49    22    50 1
   50    23    51 1
@<TRIPOS>SUBSTRUCTURE
1   ****   1
@<TRIPOS>MOLECULE
1r58
45  45  1  0  0
SMALL
FORMAL_CHARGES
@<TRIPOS>ATOM
    1 C1        14.0659    -1.3847    -1.1327 C.3        1 ****  0
    2 C2        15.3371    -1.6757    -0.2628 C.3        1 ****  0
    3 C3        14.0897     0.1425    -1.4722 C.3        1 ****  0
    4 S1        12.5970    -1.7763    -0.2089 S.3        1 ****  0
    5 C4        11.1352    -0.7059    -0.1523 C.3        1 ****  0
    6 C5         9.8649    -1.5778    -0.1611 C.3        1 ****  0
    7 C6         8.6268    -1.3693     0.7627 C.3        1 ****  0
    8 N1         8.6282     0.1064     1.1385 N.3        1 ****  0
    9 C7         7.3290    -1.0179     0.8171 C.3        1 ****  0
   10 O1         7.3678    -2.5004     0.9760 O.3        1 ****  0
   11 C8         6.0863    -0.7759    -0.1016 C.2        1 ****  0
   12 O2         6.1294     0.4522    -0.2351 O.2        1 ****  0
   13 N2         4.8521    -1.4279     0.0204 N.am       1 ****  0
   14 N3         3.7110    -0.7393    -0.0037 N.am       1 ****  0
   15 C9         2.4905    -1.4255    -0.0002 C.2        1 ****  0
   16 O3         2.4798    -2.6618    -0.0011 O.2        1 ****  0
   17 C10        1.2257    -0.6888    -0.0001 C.ar       1 ****  0
   18 C11        1.2294     0.6991     0.0001 C.ar       1 ****  0
   19 C12        0.0260     1.3982     0.0001 C.ar       1 ****  0
   20 C13       -1.1775     0.7070    -0.0000 C.ar       1 ****  0
   21 C14       -1.1808    -0.6846    -0.0002 C.ar       1 ****  0
   22 C15        0.0194    -1.3819    -0.0002 C.ar       1 ****  0
   23 Cl1       -2.6702    -1.5390    -0.0004 Cl         1 ****  0
   24 H1        14.0349    -2.0074    -2.0390 H          1 ****  0
   25 H2        16.2480    -1.0591    -0.2726 H          1 ****  0
   26 H3        15.3077    -2.2999    -1.1680 H          1 ****  0
   27 H4        15.3430    -2.3223     0.6271 H          1 ****  0
   28 H5        14.0592    -0.4800    -2.3786 H          1 ****  0
   29 H6        14.9995     0.7607    -1.4832 H          1 ****  0
   30 H7        13.2046     0.7951    -1.4470 H          1 ****  0
   31 H8        11.1306    -0.0426    -1.0299 H          1 ****  0
   32 H9        11.1586    -0.1011     0.7662 H          1 ****  0
   33 H10        9.8405    -2.1782    -1.0825 H          1 ****  0
   34 H11        9.8771    -2.2514     0.7085 H          1 ****  0
   35 H12        8.6465    -2.0529     1.6242 H          1 ****  0
   36 H13        9.4701     0.6995     1.1530 H          1 ****  0
   37 H14        8.6404    -0.5259     1.9515 H          1 ****  0
   38 H15        7.3029    -0.4485     1.7579 H          1 ****  0
   39 H16        7.3879    -1.9856     1.8214 H          1 ****  0
   40 H17        4.8262    -2.4517     0.1299 H          1 ****  0
   41 H18        3.7270     0.2904    -0.0247 H          1 ****  0
   42 H19        2.1835     1.2465     0.0002 H          1 ****  0
   43 H20        0.0287     2.4982     0.0003 H          1 ****  0
   44 H21       -2.1289     1.2592    -0.0000 H          1 ****  0
   45 H22        0.0168    -2.4819    -0.0004 H          1 ****  0
@<TRIPOS>BOND
    1     1     2 1
    2     1     3 1
    3     1     4 1
    4     1    24 1
    5     2    25 1
    6     2    26 1
    7     2    27 1
    8     3    28 1
    9     3    29 1
   10     3    30 1
   11     4     5 1
   12     5     6 1
   13     5    31 1
   14     5    32 1
   15     6     7 1
   16     6    33 1
   17     6    34 1
   18     7     8 1
   19     7     9 1
   20     7    35 1
   21     8    36 1
   22     8    37 1
   23     9    10 1
   24     9    11 1
   25     9    38 1
   26    10    39 1
   27    11    12 2
   28    11    13 am
   29    13    14 1
   30    13    40 1
   31    14    15 am
   32    14    41 1
   33    15    16 2
   34    15    17 1
   35    17    18 ar
   36    17    22 ar
   37    18    19 ar
   38    18    42 1
   39    19    20 ar
   40    19    43 1
   41    20    21 ar
   42    20    44 1
   43    21    22 ar
   44    21    23 1
   45    22    45 1
@<TRIPOS>SUBSTRUCTURE
1   ****   1
@<TRIPOS>MOLECULE
1r9o
30  31  1  0  0
SMALL
FORMAL_CHARGES
@<TRIPOS>ATOM
    1 C1         4.8807    -1.4472     0.0002 C.ar       1 ****  0
    2 C2         3.6772    -0.7525     0.0002 C.ar       1 ****  0
    3 C3         2.4733    -1.4484    -0.0000 C.ar       1 ****  0
    4 C4         2.4734    -2.8375    -0.0002 C.ar       1 ****  0
    5 C5         3.6779    -3.5326    -0.0002 C.ar       1 ****  0
    6 C6         4.8807    -2.8373     0.0001 C.ar       1 ****  0
    7 C7         1.2033    -0.7161    -0.0001 C.ar       1 ****  0
    8 C8         1.2037     0.6736     0.0001 C.ar       1 ****  0
    9 C9         0.0003     1.3683     0.0001 C.ar       1 ****  0
   10 C10       -1.2031     0.6734    -0.0001 C.ar       1 ****  0
   11 C11       -1.2037    -0.7164    -0.0003 C.ar       1 ****  0
   12 C12       -0.0002    -1.4113    -0.0003 C.ar       1 ****  0
   13 C13       -1.9884     1.7057    -0.9338 C.3        1 ****  0
   14 C14       -2.2770     2.9525    -0.0117 C.3        1 ****  0
   15 C15       -3.3913     1.0387    -1.1666 C.2        1 ****  0.0000
   16 O1        -4.4779     1.6069    -1.3240 O.co2      1 ****  -0.50
   17 O2        -2.9969     0.0846    -2.0501 O.co2      1 ****  -0.50
   18 F1        -0.0001    -2.7501    -0.0005 F          1 ****  0
   19 H1         5.8333    -0.8971     0.0004 H          1 ****  0
   20 H2         3.6768     0.3475     0.0003 H          1 ****  0
   21 H3         1.5209    -3.3876    -0.0004 H          1 ****  0
   22 H4         3.6783    -4.6326    -0.0003 H          1 ****  0
   23 H5         5.8334    -3.3870     0.0001 H          1 ****  0
   24 H6         2.1564     1.2234     0.0003 H          1 ****  0
   25 H7         0.0003     2.4683     0.0002 H          1 ****  0
   26 H8        -2.1565    -1.2662    -0.0005 H          1 ****  0
   27 H9        -1.4681     1.9832    -1.8624 H          1 ****  0
   28 H10       -1.6961     3.2167    -0.9076 H          1 ****  0
   29 H11       -1.6985     3.2246     0.8835 H          1 ****  0
   30 H12       -3.2392     3.4856    -0.0153 H          1 ****  0
@<TRIPOS>BOND
    1     1     2 ar
    2     1     6 ar
    3     1    19 1
    4     2     3 ar
    5     2    20 1
    6     3     4 ar
    7     3     7 1
    8     4     5 ar
    9     4    21 1
   10     5     6 ar
   11     5    22 1
   12     6    23 1
   13     7     8 ar
   14     7    12 ar
   15     8     9 ar
   16     8    24 1
   17     9    10 ar
   18     9    25 1
   19    10    11 ar
   20    10    13 1
   21    11    12 ar
   22    11    26 1
   23    12    18 1
   24    13    14 1
   25    13    15 1
   26    13    27 1
   27    14    28 1
   28    14    29 1
   29    14    30 1
   30    15    16 ar
   31    15    17 ar
@<TRIPOS>SUBSTRUCTURE
1   ****   1
@<TRIPOS>MOLECULE
1s19
70  73  1  0  0
SMALL
FORMAL_CHARGES
@<TRIPOS>ATOM
    1 O1         6.2724    -3.6197     0.8399 O.3        1 ****  0
    2 O2         7.8476    -0.3598     2.7893 O.3        1 ****  0
    3 C1         7.0196    -1.2848     2.0811 C.3        1 ****  0
    4 C2         6.6819    -2.5124     2.9421 C.3        1 ****  0
    5 C3         5.7305    -3.4074     2.1460 C.3        1 ****  0
    6 C4         4.3632    -2.7115     2.0478 C.3        1 ****  0
    7 C5         4.5031    -1.3271     1.4814 C.2        1 ****  0
    8 C6         3.4589    -0.7381     0.9036 C.2        1 ****  0
    9 C7         3.5910     0.6094     0.3489 C.2        1 ****  0
   10 C8         2.5474     1.1981    -0.2292 C.2        1 ****  0
   11 C9         1.2082     0.5083    -0.2639 C.3        1 ****  0
   12 C10        5.7858    -0.6093     1.5527 C.2        1 ****  0
   13 C11        0.5338     0.7436    -1.6378 C.3        1 ****  0
   14 C12        4.8697     3.7539    -2.3295 C.3        1 ****  0
   15 C13        3.4153     3.2551    -2.2041 C.3        1 ****  0
   16 C14        2.6611     2.6004    -0.7457 C.3        1 ****  0
   17 C15        1.8933     3.5952     0.1435 C.3        1 ****  0
   18 C16        1.4713     4.7324    -0.8505 C.3        1 ****  0
   19 C17        2.5292     3.8576    -1.3687 C.3        1 ****  0
   20 C18        2.6874     2.0182    -3.2170 C.3        1 ****  0
   21 C19        5.8653     0.6443     1.1121 C.2        1 ****  0
   22 C20        3.5080     4.6128    -2.2307 C.3        1 ****  0
   23 C21        3.8124     5.5437    -3.3694 C.2        1 ****  0
   24 C22        5.7365     6.4042    -4.5334 C.3        1 ****  0
   25 C23        3.9099     5.2681    -0.8946 C.3        1 ****  0
   26 C24        6.6214     7.7051    -4.4116 C.3        1 ****  0
   27 C25        7.2514     8.1708    -5.6623 C.3        1 ****  0
   28 C26        7.6034     6.8068    -5.0494 C.3        1 ****  0
   29 O3         4.7997     6.6823    -5.6618 O.3        1 ****  0
   30 C27        4.8348     6.3898    -3.2854 C.2        1 ****  0
   31 H1         7.1556    -4.0611     0.9124 H          1 ****  0
   32 H2         8.6834    -0.8209     3.0515 H          1 ****  0
   33 H3         7.5880    -1.6520     1.2139 H          1 ****  0
   34 H4         6.1926    -2.1894     3.8728 H          1 ****  0
   35 H5         7.6035    -3.0668     3.1733 H          1 ****  0
   36 H6         5.6084    -4.3798     2.6456 H          1 ****  0
   37 H7         3.9138    -2.6488     3.0499 H          1 ****  0
   38 H8         3.7006    -3.3030     1.3989 H          1 ****  0
   39 H9         2.4952    -1.2650     0.8429 H          1 ****  0
   40 H10        4.5546     1.1365     0.4099 H          1 ****  0
   41 H11        1.3482    -0.5712    -0.1056 H          1 ****  0
   42 H12        0.5661     0.9131     0.5323 H          1 ****  0
   43 H13       -0.4957     0.3571    -1.6124 H          1 ****  0
   44 H14        1.1016     0.2176    -2.4193 H          1 ****  0
   45 H15       -0.0246     2.4275    -2.9014 H          1 ****  0
   46 H16        0.0012     2.7964    -1.1383 H          1 ****  0
   47 H17        3.7429     2.7950    -0.7890 H          1 ****  0
   48 H18        2.5561     4.0004     0.9222 H          1 ****  0
   49 H19        1.0002     3.1138     0.5687 H          1 ****  0
   50 H20        1.9459     5.6817    -0.5615 H          1 ****  0
   51 H21        0.3752     4.8214    -0.8775 H          1 ****  0
   52 H22        3.0556     3.4421    -0.4968 H          1 ****  0
   53 H23        2.1540     2.2007    -4.1615 H          1 ****  0
   54 H24        2.6866     0.9391    -3.0037 H          1 ****  0
   55 H25        3.7229     2.3804    -3.2987 H          1 ****  0
   56 H26        6.8239     1.1835     1.1334 H          1 ****  0
   57 H27        4.9649     1.1432     0.7243 H          1 ****  0
   58 H28        4.0850     3.6834    -2.3458 H          1 ****  0
   59 H29        3.1881     5.5255    -4.2750 H          1 ****  0
   60 H30        6.3406     5.4913    -4.6418 H          1 ****  0
   61 H31        3.6850     4.5721    -0.0730 H          1 ****  0
   62 H32        3.3246     6.1893    -0.7577 H          1 ****  0
   63 H33        4.9840     5.5056    -0.8990 H          1 ****  0
   64 H34        6.5237     8.1322    -3.4026 H          1 ****  0
   65 H35        8.0488     8.9054    -5.4764 H          1 ****  0
   66 H36        6.5851     8.0546    -6.5298 H          1 ****  0
   67 H37        7.1190     5.9882    -5.6018 H          1 ****  0
   68 H38        8.5815     6.8393    -4.5471 H          1 ****  0
   69 H39        5.3538     5.8690    -5.7698 H          1 ****  0
   70 H40        5.4610     6.4092    -2.3812 H          1 ****  0
@<TRIPOS>BOND
    1     1    31 1
    2     2    32 1
    3     3     2 1
    4     3     4 1
    5     3    12 1
    6     3    33 1
    7     4     5 1
    8     4    34 1
    9     4    35 1
   10     5     1 1
   11     5     6 1
   12     5    36 1
   13     6     7 1
   14     6    37 1
   15     6    38 1
   16     7     8 2
   17     7    12 1
   18     8     9 1
   19     8    39 1
   20     9    10 2
   21     9    40 1
   22    10    11 1
   23    10    16 1
   24    11    13 1
   25    11    41 1
   26    11    42 1
   27    12    21 2
   28    13    14 1
   29    13    43 1
   30    13    44 1
   31    14    15 1
   32    14    45 1
   33    14    46 1
   34    15    16 1
   35    15    19 1
   36    15    20 1
   37    16    17 1
   38    16    47 1
   39    17    18 1
   40    17    48 1
   41    17    49 1
   42    18    50 1
   43    18    51 1
   44    19    18 1
   45    19    22 1
   46    19    52 1
   47    20    53 1
   48    20    54 1
   49    20    55 1
   50    21    56 1
   51    21    57 1
   52    22    23 1
   53    22    25 1
   54    22    58 1
   55    23    30 2
   56    23    59 1
   57    24    26 1
   58    24    29 1
   59    24    30 1
   60    24    60 1
   61    25    61 1
   62    25    62 1
   63    25    63 1
   64    26    27 1
   65    26    28 1
   66    26    64 1
   67    27    28 1
   68    27    65 1
   69    27    66 1
   70    28    67 1
   71    28    68 1
   72    29    69 1
   73    30    70 1
@<TRIPOS>SUBSTRUCTURE
1   ****   1
@<TRIPOS>MOLECULE
1s3v
55  57  1  0  0
SMALL
FORMAL_CHARGES
@<TRIPOS>ATOM
    1 C1         1.1581    -0.6663     0.1689 C.ar       1 ****  0
    2 C2        -1.1506    -0.7119     0.1314 C.ar       1 ****  0
    3 C3        -1.1661     0.6717     0.2158 C.ar       1 ****  0
    4 C4        -2.4590     1.4083     0.1462 C.3        1 ****  0
    5 C5        -2.3040     2.8019    -0.4846 C.3        1 ****  0
    6 C6        -1.2620     3.5487     0.3763 C.3        1 ****  0
    7 C7         0.1259     2.8739     0.3178 C.3        1 ****  0
    8 C8         0.0448     1.3544     0.3094 C.ar       1 ****  0
    9 C9        -2.0091     2.8401    -2.0798 C.3        1 ****  0
   10 C10       -0.0598     3.1505    -3.6278 C.ar       1 ****  0
   11 C11       -0.6112     4.3482    -4.0545 C.ar       1 ****  0
   12 C12       -0.0389     5.0527    -5.1109 C.ar       1 ****  0
   13 C13       -1.8845     6.4406    -4.7632 C.3        1 ****  0
   14 C14        1.1458     4.5785    -5.7005 C.ar       1 ****  0
   15 C15        1.3258     6.4080    -7.3361 C.3        1 ****  0
   16 C16        1.7123     3.4011    -5.2245 C.ar       1 ****  0
   17 C17        3.3290     1.7391    -5.1109 C.3        1 ****  0
   18 C18        1.0977     2.6747    -4.2180 C.ar       1 ****  0
   19 N1         1.1764     0.6478     0.2835 N.ar       1 ****  1
   20 N2         2.3595    -1.3682     0.0874 N.pl3      1 ****  0
   21 N3         0.0138    -1.3460     0.1061 N.ar       1 ****  0
   22 N4        -2.3694    -1.4818     0.0445 N.pl3      1 ****  0
   23 N5        -0.6875     2.3648    -2.6365 N.pl3      1 ****  0
   24 O1        -0.6923     6.2239    -5.5297 O.3        1 ****  0
   25 O2         1.8670     5.2083    -6.7800 O.3        1 ****  0
   26 O3         2.9115     2.9422    -5.7724 O.3        1 ****  0
   27 C19       -0.2430     0.9577    -2.6556 C.3        1 ****  0
   28 H1        -3.1670     0.8302    -0.4370 H          1 ****  0
   29 H2        -2.8630     1.5132     1.1438 H          1 ****  0
   30 H3        -3.2709     3.3082    -0.3524 H          1 ****  0
   31 H4        -1.1763     4.5700     0.0265 H          1 ****  0
   32 H5        -1.6002     3.5764     1.4017 H          1 ****  0
   33 H6         0.7135     3.1923     1.1713 H          1 ****  0
   34 H7         0.6468     3.2068    -0.5761 H          1 ****  0
   35 H8        -2.8268     2.2720    -2.6039 H          1 ****  0
   36 H9        -2.1774     3.8879    -2.4452 H          1 ****  0
   37 H10       -1.4829     4.7344    -3.5689 H          1 ****  0
   38 H11       -1.6211     6.5265    -3.7276 H          1 ****  0
   39 H12       -2.5370     5.5998    -4.8902 H          1 ****  0
   40 H13       -2.3702     7.3291    -5.0887 H          1 ****  0
   41 H14        1.2228     7.0909    -6.4947 H          1 ****  0
   42 H15        0.3170     6.1463    -7.6508 H          1 ****  0
   43 H16        1.8849     6.7878    -8.0845 H          1 ****  0
   44 H17        2.5720     0.9911    -5.2298 H          1 ****  0
   45 H18        3.4659     1.9401    -4.0680 H          1 ****  0
   46 H19        4.2464     1.3933    -5.5342 H          1 ****  0
   47 H20        1.5183     1.7449    -3.8965 H          1 ****  0
   48 H21        2.0456     1.1295     0.3189 H          1 ****  0
   49 H22        3.2218    -0.8730     0.1032 H          1 ****  0
   50 H23        2.3545    -2.3565    -0.0209 H          1 ****  0
   51 H24       -3.2888    -1.0218     0.0496 H          1 ****  0
   52 H25       -2.3175    -2.5056    -0.0333 H          1 ****  0
   53 H26       -1.0971     0.4621    -3.1594 H          1 ****  0
   54 H27       -0.3600     0.6737    -1.5905 H          1 ****  0
   55 H28        0.6167     0.7874    -3.0366 H          1 ****  0
@<TRIPOS>BOND
    1     1    19 ar
    2     1    20 1
    3     1    21 ar
    4     2     3 ar
    5     2    21 ar
    6     2    22 1
    7     3     4 1
    8     3     8 ar
    9     4     5 1
   10     4    28 1
   11     4    29 1
   12     5     6 1
   13     5     9 1
   14     5    30 1
   15     6     7 1
   16     6    31 1
   17     6    32 1
   18     7     8 1
   19     7    33 1
   20     7    34 1
   21     8    19 ar
   22     9    23 1
   23     9    35 1
   24     9    36 1
   25    10    11 ar
   26    10    18 ar
   27    10    23 1
   28    11    12 ar
   29    11    37 1
   30    12    14 ar
   31    12    24 1
   32    13    24 1
   33    13    38 1
   34    13    39 1
   35    13    40 1
   36    14    16 ar
   37    14    25 1
   38    15    25 1
   39    15    41 1
   40    15    42 1
   41    15    43 1
   42    16    18 ar
   43    16    26 1
   44    17    26 1
   45    17    44 1
   46    17    45 1
   47    17    46 1
   48    18    47 1
   49    19    48 1
   50    20    49 1
   51    20    50 1
   52    22    51 1
   53    22    52 1
   54    23    27 1
   55    27    53 1
   56    27    54 1
   57    27    55 1
@<TRIPOS>SUBSTRUCTURE
1   ****   1
@<TRIPOS>MOLECULE
1sg0
29  30  1  0  0
SMALL
FORMAL_CHARGES
@<TRIPOS>ATOM
    1 C1         1.2137    -0.6895    -0.0001 C.ar       1 ****  0
    2 C2         1.2136     0.7003     0.0000 C.ar       1 ****  0
    3 C3         0.0102     1.3952    -0.0000 C.ar       1 ****  0
    4 C4        -1.1935     0.7006    -0.0001 C.ar       1 ****  0
    5 C5        -1.1933    -0.6890    -0.0002 C.ar       1 ****  0
    6 C6         0.0101    -1.3842    -0.0002 C.ar       1 ****  0
    7 C7        -2.4622    -1.4210    -0.0004 C.2        1 ****  0
    8 C8        -3.6164    -0.7563    -0.0005 C.2        1 ****  0
    9 C9        -4.8867    -1.4874    -0.0006 C.ar       1 ****  0
   10 C10       -4.8915    -2.8772    -0.0004 C.ar       1 ****  0
   11 C11       -6.0976    -3.5676    -0.0005 C.ar       1 ****  0
   12 C12       -7.2984    -2.8677    -0.0007 C.ar       1 ****  0
   13 C13       -7.2937    -1.4779    -0.0008 C.ar       1 ****  0
   14 C14       -6.0877    -0.7876    -0.0008 C.ar       1 ****  0
   15 O1        -8.5038    -3.5569    -0.0008 O.3        1 ****  0
   16 O2         0.0100     2.7837     0.0001 O.3        1 ****  0
   17 O3         2.4161    -1.3838    -0.0000 O.3        1 ****  0
   18 H1         2.1662     1.2503     0.0001 H          1 ****  0
   19 H2        -2.1461     1.2506    -0.0002 H          1 ****  0
   20 H3         0.0099    -2.4842    -0.0003 H          1 ****  0
   21 H4        -2.4617    -2.5210    -0.0003 H          1 ****  0
   22 H5        -3.6163     0.3437    -0.0005 H          1 ****  0
   23 H6        -3.9408    -3.4306    -0.0003 H          1 ****  0
   24 H7        -6.1020    -4.6676    -0.0004 H          1 ****  0
   25 H8        -8.2443    -0.9245    -0.0010 H          1 ****  0
   26 H9        -6.0834     0.3124    -0.0009 H          1 ****  0
   27 H10       -8.4624    -4.1437     0.7955 H          1 ****  0
   28 H11        0.5401     3.0391    -0.7961 H          1 ****  0
   29 H12        2.9022    -1.0524     0.7962 H          1 ****  0
@<TRIPOS>BOND
    1     1     2 ar
    2     1     6 ar
    3     1    17 1
    4     2     3 ar
    5     2    18 1
    6     3     4 ar
    7     3    16 1
    8     4     5 ar
    9     4    19 1
   10     5     6 ar
   11     5     7 1
   12     6    20 1
   13     7     8 2
   14     7    21 1
   15     8     9 1
   16     8    22 1
   17     9    10 ar
   18     9    14 ar
   19    10    11 ar
   20    10    23 1
   21    11    12 ar
   22    11    24 1
   23    12    13 ar
   24    12    15 1
   25    13    14 ar
   26    13    25 1
   27    14    26 1
   28    15    27 1
   29    16    28 1
   30    17    29 1
@<TRIPOS>SUBSTRUCTURE
1   ****   1
@<TRIPOS>MOLECULE
1sj0
63  67  1  0  0
SMALL
FORMAL_CHARGES
@<TRIPOS>ATOM
    1 C1         1.3515    -0.6554     0.3628 C.3        1 ****  0
    2 C2         1.2253     0.6952    -0.3368 C.3        1 ****  0
    3 O1         0.0155     1.4498     0.0186 O.3        1 ****  0
    4 C3        -1.2526     0.7678     0.0702 C.ar       1 ****  0
    5 C4        -2.3875     1.5471     0.2717 C.ar       1 ****  0
    6 C5        -3.6486     0.9673     0.3236 C.ar       1 ****  0
    7 C6        -3.7857    -0.4066     0.1777 C.ar       1 ****  0
    8 O2        -5.0454    -0.9892     0.2189 O.3        1 ****  0
    9 C7        -2.6589    -1.1957    -0.0081 C.ar       1 ****  0
   10 C8        -1.3977    -0.6126    -0.0574 C.ar       1 ****  0
   11 S1        -0.0002    -1.6302    -0.2409 S.3        1 ****  0
   12 C9         1.2706    -0.4699     1.8580 C.ar       1 ****  0
   13 C10        1.3525     0.8011     2.4137 C.ar       1 ****  0
   14 C11        1.2743     0.9628     3.7918 C.ar       1 ****  0
   15 C12        1.1142    -0.1468     4.6133 C.ar       1 ****  0
   16 O3         1.0360     0.0141     5.9902 O.3        1 ****  0
   17 C13        1.0323    -1.4180     4.0574 C.ar       1 ****  0
   18 C14        1.1106    -1.5797     2.6795 C.ar       1 ****  0
   19 C15        2.4288     1.5513    -0.0283 C.ar       1 ****  0
   20 C16        3.5304     1.0084     0.6215 C.ar       1 ****  0
   21 C17        4.6351     1.8047     0.8990 C.ar       1 ****  0
   22 C18        4.6371     3.1437     0.5263 C.ar       1 ****  0
   23 C19        3.5352     3.6868    -0.1236 C.ar       1 ****  0
   24 C20        2.4306     2.8905    -0.4010 C.ar       1 ****  0
   25 O4         5.7472     3.9442     0.8051 O.3        1 ****  0
   26 C21        6.7688     3.1949     1.4762 C.3        1 ****  0
   27 C22        7.9693     4.1224     1.7603 C.3        1 ****  0
   28 N1         9.0399     3.3806     2.4514 N.4        1 ****  1
   29 C23        8.5383     2.8645     3.7406 C.3        1 ****  0
   30 C24        9.6730     2.1460     4.4948 C.3        1 ****  0
   31 C25       10.1823     0.9782     3.6383 C.3        1 ****  0
   32 C26       10.6693     1.5312     2.2916 C.3        1 ****  0
   33 C27        9.5059     2.2674     1.6008 C.3        1 ****  0
   34 H1         2.3143    -1.1458     0.1570 H          1 ****  0
   35 H2         1.1577     0.4627    -1.4099 H          1 ****  0
   36 H3        -2.2847     2.6357     0.3914 H          1 ****  0
   37 H4        -4.5376     1.5958     0.4802 H          1 ****  0
   38 H5        -5.5626    -0.5277    -0.4880 H          1 ****  0
   39 H6        -2.7641    -2.2853    -0.1165 H          1 ****  0
   40 H7         1.4792     1.6790     1.7631 H          1 ****  0
   41 H8         1.3390     1.9687     4.2323 H          1 ****  0
   42 H9         0.2840     0.6423     6.1315 H          1 ****  0
   43 H10        0.9057    -2.2958     4.7080 H          1 ****  0
   44 H11        1.0458    -2.5856     2.2389 H          1 ****  0
   45 H12        3.5283    -0.0514     0.9161 H          1 ****  0
   46 H13        5.5075     1.3755     1.4133 H          1 ****  0
   47 H14        3.5374     4.7466    -0.4182 H          1 ****  0
   48 H15        1.5582     3.3198    -0.9154 H          1 ****  0
   49 H16        6.3746     2.8036     2.4256 H          1 ****  0
   50 H17        7.0934     2.3598     0.8380 H          1 ****  0
   51 H18        8.3567     4.5188     0.8101 H          1 ****  0
   52 H19        7.6419     4.9610     2.3924 H          1 ****  0
   53 H20        9.8315     4.0143     2.6325 H          1 ****  0
   54 H21        8.1675     3.7016     4.3502 H          1 ****  0
   55 H22        7.7165     2.1566     3.5573 H          1 ****  0
   56 H23        9.2930     1.7604     5.4524 H          1 ****  0
   57 H24       10.4961     2.8518     4.6802 H          1 ****  0
   58 H25       11.0157     0.4788     4.1541 H          1 ****  0
   59 H26        9.3657     0.2612     3.4679 H          1 ****  0
   60 H27       11.0093     0.7020     1.6536 H          1 ****  0
   61 H28       11.4993     2.2330     2.4605 H          1 ****  0
   62 H29        9.8479     2.6635     0.6333 H          1 ****  0
   63 H30        8.6771     1.5639     1.4327 H          1 ****  0
@<TRIPOS>BOND
    1     1     2 1
    2     1    11 1
    3     1    12 1
    4     1    34 1
    5     2     3 1
    6     2    19 1
    7     2    35 1
    8     3     4 1
    9     4     5 ar
   10     4    10 ar
   11     5     6 ar
   12     5    36 1
   13     6     7 ar
   14     6    37 1
   15     7     8 1
   16     7     9 ar
   17     8    38 1
   18     9    10 ar
   19     9    39 1
   20    10    11 1
   21    12    13 ar
   22    12    18 ar
   23    13    14 ar
   24    13    40 1
   25    14    15 ar
   26    14    41 1
   27    15    16 1
   28    15    17 ar
   29    16    42 1
   30    17    18 ar
   31    17    43 1
   32    18    44 1
   33    19    20 ar
   34    19    24 ar
   35    20    21 ar
   36    20    45 1
   37    21    22 ar
   38    21    46 1
   39    22    23 ar
   40    22    25 1
   41    23    24 ar
   42    23    47 1
   43    24    48 1
   44    25    26 1
   45    26    27 1
   46    26    49 1
   47    26    50 1
   48    27    28 1
   49    27    51 1
   50    27    52 1
   51    28    29 1
   52    28    33 1
   53    28    53 1
   54    29    30 1
   55    29    54 1
   56    29    55 1
   57    30    31 1
   58    30    56 1
   59    30    57 1
   60    31    32 1
   61    31    58 1
   62    31    59 1
   63    32    33 1
   64    32    60 1
   65    32    61 1
   66    33    62 1
   67    33    63 1
@<TRIPOS>SUBSTRUCTURE
1   ****   1
@<TRIPOS>MOLECULE
1sq5
31  30  1  0  0
SMALL
FORMAL_CHARGES
@<TRIPOS>ATOM
    1 O1         0.2858     0.1096    -0.0629 O.3        1 ****  0
    2 C1         2.7024    -0.0691    -0.0381 C.3        1 ****  0
    3 C2         1.4900     0.8779    -0.0013 C.3        1 ****  0
    4 C3         2.6044    -1.0254     1.1709 C.3        1 ****  0
    5 C4         2.6664    -0.8729    -1.3537 C.3        1 ****  0
    6 C5         4.0372     0.2821    -0.9393 C.3        1 ****  0
    7 O2         4.0299     1.7452    -1.0230 O.3        1 ****  0
    8 C6         5.2879    -0.0314     0.0150 C.2        1 ****  0
    9 O3         5.2783    -1.2580     0.1321 O.2        1 ****  0
   10 N1         6.5110     0.6309    -0.1141 N.am       1 ****  0
   11 C7         7.7327    -0.1226    -0.0793 C.3        1 ****  0
   12 C8         8.9333     0.8417    -0.0479 C.3        1 ****  0
   13 C9        10.2102     0.0508    -0.0078 C.2        1 ****  0.0000
   14 O4        11.2995     0.6356     0.0140 O.co2      1 ****  -0.50
   15 O5        10.1683    -1.3068     0.0035 O.co2      1 ****  -0.50
   16 H1         0.2458    -0.5067     0.7108 H          1 ****  0
   17 H2         1.5333     1.5621    -0.8616 H          1 ****  0
   18 H3         1.5081     1.4597     0.9321 H          1 ****  0
   19 H4         1.6785    -1.6163     1.1114 H          1 ****  0
   20 H5         2.6187    -0.4514     2.1091 H          1 ****  0
   21 H6         3.4663    -1.7088     1.1566 H          1 ****  0
   22 H7         2.7133    -0.1862    -2.2118 H          1 ****  0
   23 H8         1.7399    -1.4637    -1.4045 H          1 ****  0
   24 H9         3.5308    -1.5524    -1.3868 H          1 ****  0
   25 H10        4.0726    -0.2232    -1.9158 H          1 ****  0
   26 H11        3.2395     2.3364    -0.9462 H          1 ****  0
   27 H12        6.5364     1.6537    -0.2334 H          1 ****  0
   28 H13        7.7978    -0.7585    -0.9745 H          1 ****  0
   29 H14        7.7477    -0.7551     0.8205 H          1 ****  0
   30 H15        8.8696     1.4793     0.8462 H          1 ****  0
   31 H16        8.9212     1.4720    -0.9493 H          1 ****  0
@<TRIPOS>BOND
    1     1     3 1
    2     1    16 1
    3     2     3 1
    4     2     4 1
    5     2     5 1
    6     2     6 1
    7     3    17 1
    8     3    18 1
    9     4    19 1
   10     4    20 1
   11     4    21 1
   12     5    22 1
   13     5    23 1
   14     5    24 1
   15     6     7 1
   16     6     8 1
   17     6    25 1
   18     7    26 1
   19     8     9 2
   20     8    10 am
   21    10    11 1
   22    10    27 1
   23    11    12 1
   24    11    28 1
   25    11    29 1
   26    12    13 1
   27    12    30 1
   28    12    31 1
   29    13    14 ar
   30    13    15 ar
@<TRIPOS>SUBSTRUCTURE
1   ****   1
@<TRIPOS>MOLECULE
1sqn
48  51  1  0  0
SMALL
FORMAL_CHARGES
@<TRIPOS>ATOM
    1 O1         2.1160    -1.4383     0.8499 O.2        1 ****  0
    2 C1         1.1471    -0.8030     0.4196 C.2        1 ****  0
    3 C2         1.3628     0.3371    -0.5182 C.3        1 ****  0
    4 C3        -0.2118    -1.2698     0.6899 C.2        1 ****  0
    5 C4        -1.2709    -0.5784     0.2577 C.2        1 ****  0
    6 C5        -2.6216    -1.1510     0.3608 C.3        1 ****  0
    7 C6        -0.4074    -0.1023    -0.8268 C.3        1 ****  0
    8 C7         0.2397     1.3425    -0.2965 C.3        1 ****  0
    9 C8        -2.1180     0.9729    -1.6826 C.3        1 ****  0
   10 C9        -2.0452    -1.1492    -2.3458 C.3        1 ****  0
   11 C10       -2.9549    -1.5877    -1.0864 C.3        1 ****  0
   12 C11       -1.2328     1.4306    -2.9300 C.3        1 ****  0
   13 C12       -5.6287    -0.9465    -4.8274 C.3        1 ****  0
   14 C13       -4.2173    -0.3410    -4.6683 C.3        1 ****  0
   15 C14       -1.9826    -0.4684    -3.5269 C.3        1 ****  0
   16 C15       -3.8894     1.3522    -4.4109 C.3        1 ****  0
   17 C16       -1.5485     0.0212    -5.6712 C.3        1 ****  0
   18 O2        -0.2150     0.5768    -5.5491 O.3        1 ****  0
   19 C17       -1.8791    -1.6846    -5.5153 C.3        1 ****  0
   20 C18       -1.9939    -1.9214    -3.9650 C.3        1 ****  0
   21 C19       -2.5039     0.2871    -7.0251 C.1        1 ****  0
   22 C20       -2.2161     0.9467    -7.9996 C.1        1 ****  0
   23 H1         2.3320     0.8126    -0.3073 H          1 ****  0
   24 H2         1.3353    -0.0250    -1.5565 H          1 ****  0
   25 H3        -0.3644    -2.2007     1.2555 H          1 ****  0
   26 H4        -2.6141    -2.0264     1.0268 H          1 ****  0
   27 H5        -3.3360    -0.3853     0.6975 H          1 ****  0
   28 H6         0.3143    -0.8760    -1.1278 H          1 ****  0
   29 H7         0.3559     2.1816    -0.9983 H          1 ****  0
   30 H8         0.2900     1.7246     0.7338 H          1 ****  0
   31 H9        -2.8867     1.7079    -1.4016 H          1 ****  0
   32 H10       -1.3108    -1.9187    -2.6260 H          1 ****  0
   33 H11       -3.9943    -1.9452    -1.1309 H          1 ****  0
   34 H12       -2.2792    -2.4020    -1.3870 H          1 ****  0
   35 H13       -0.2438     1.9009    -2.8260 H          1 ****  0
   36 H14       -2.0320     2.1576    -2.7234 H          1 ****  0
   37 H15       -1.2594     1.6804    -5.0816 H          1 ****  0
   38 H16       -0.6397     0.0893    -4.5253 H          1 ****  0
   39 H17       -0.9511    -0.0867    -3.5449 H          1 ****  0
   40 H18       -3.7173     2.0965    -5.2024 H          1 ****  0
   41 H19       -3.8090     1.8450    -3.4308 H          1 ****  0
   42 H20       -4.8882     0.9058    -4.5260 H          1 ****  0
   43 H21       -4.8836    -0.3597    -5.9429 H          1 ****  0
   44 H22       -2.1815    -2.5914    -6.0595 H          1 ****  0
   45 H23       -0.8576    -1.3694    -5.7746 H          1 ****  0
   46 H24       -1.0204    -1.7492    -3.4826 H          1 ****  0
   47 H25       -2.3847    -2.9298    -3.7642 H          1 ****  0
   48 H26       -1.9547     1.5456    -8.8844 H          1 ****  0
@<TRIPOS>BOND
    1     1     2 2
    2     2     3 1
    3     2     4 1
    4     3     8 1
    5     3    23 1
    6     3    24 1
    7     4     5 2
    8     4    25 1
    9     5     6 1
   10     5     7 1
   11     6    11 1
   12     6    26 1
   13     6    27 1
   14     7     8 1
   15     7     9 1
   16     7    28 1
   17     8    29 1
   18     8    30 1
   19     9    10 1
   20     9    12 1
   21     9    31 1
   22    10    11 1
   23    10    15 1
   24    10    32 1
   25    11    33 1
   26    11    34 1
   27    12    13 1
   28    12    35 1
   29    12    36 1
   30    13    14 1
   31    13    37 1
   32    13    38 1
   33    14    15 1
   34    14    16 1
   35    14    17 1
   36    15    20 1
   37    15    39 1
   38    16    40 1
   39    16    41 1
   40    16    42 1
   41    17    18 1
   42    17    19 1
   43    17    21 1
   44    18    43 1
   45    19    20 1
   46    19    44 1
   47    19    45 1
   48    20    46 1
   49    20    47 1
   50    21    22 3
   51    22    48 1
@<TRIPOS>SUBSTRUCTURE
1   ****   1
@<TRIPOS>MOLECULE
1t40
37  39  1  0  0
SMALL
FORMAL_CHARGES
@<TRIPOS>ATOM
    1 C1         8.1551     5.8188     0.0011 C.ar       1 ****  0
    2 C2         5.5377     4.8816     0.0006 C.ar       1 ****  0
    3 C3         7.9064     4.4516     0.0010 C.ar       1 ****  0
    4 C4         7.0948     6.7173     0.0010 C.ar       1 ****  0
    5 C5         5.7863     6.2489     0.0007 C.ar       1 ****  0
    6 C6         6.5978     3.9832     0.0007 C.ar       1 ****  0
    7 F1        -2.3636     1.3656    -0.0000 F          1 ****  0
    8 F2         7.3337     8.0345     0.0011 F          1 ****  0
    9 C7         6.3442     2.5427     0.0005 C.2        1 ****  0
   10 C8         3.3630     0.3157    -0.0000 C.ar       1 ****  0
   11 F3         0.0274    -2.7286    -0.0005 F          1 ****  0
   12 O1         8.9719     3.5475     0.0011 O.3        1 ****  0
   13 O2         7.2938     1.7524     0.0006 O.2        1 ****  0
   14 C9         4.8258     0.6306     0.0001 C.3        1 ****  0
   15 C10       10.2242     4.2453     0.0014 C.3        1 ****  0
   16 N1         2.4116     1.2524     0.0001 N.ar       1 ****  0
   17 S1         2.7555    -1.2546    -0.0002 S.3        1 ****  0
   18 F4        -0.0047     2.7590     0.0002 F          1 ****  0
   19 C11        1.1902    -0.6628    -0.0002 C.ar       1 ****  0
   20 C12       -1.1982     0.7067    -0.0001 C.ar       1 ****  0
   21 C13        1.1922     0.7166    -0.0000 C.ar       1 ****  0
   22 C14        0.0111    -1.3903    -0.0003 C.ar       1 ****  0
   23 C15       -1.1921    -0.6895    -0.0003 C.ar       1 ****  0
   24 C16       -0.0021     1.4206     0.0000 C.ar       1 ****  0
   25 C17       11.3529     3.2559     0.0014 C.2        1 ****  0.0000
   26 O3        12.5232     3.6543     0.0017 O.co2      1 ****  -0.50
   27 O4        11.0890     1.9236     0.0011 O.co2      1 ****  -0.50
   28 N2         5.0360     2.0516     0.0003 N.am       1 ****  0
   29 H1         9.1906     6.1898     0.0013 H          1 ****  0
   30 H2         4.5022     4.5107     0.0004 H          1 ****  0
   31 H3         4.9474     6.9604     0.0006 H          1 ****  0
   32 H4         5.2922     0.1945     0.8958 H          1 ****  0
   33 H5         5.2932     0.1948    -0.8952 H          1 ****  0
   34 H6        10.2917     4.8772    -0.8965 H          1 ****  0
   35 H7        10.2922     4.8775     0.8990 H          1 ****  0
   36 H8        -2.1446    -1.2398    -0.0004 H          1 ****  0
   37 H9         4.2346     2.6986     0.0002 H          1 ****  0
@<TRIPOS>BOND
    1     1     3 ar
    2     1     4 ar
    3     1    29 1
    4     2     5 ar
    5     2     6 ar
    6     2    30 1
    7     3     6 ar
    8     3    12 1
    9     4     5 ar
   10     4     8 1
   11     5    31 1
   12     6     9 1
   13     7    20 1
   14     9    13 2
   15     9    28 am
   16    10    14 1
   17    10    16 ar
   18    10    17 ar
   19    11    22 1
   20    12    15 1
   21    14    28 1
   22    14    32 1
   23    14    33 1
   24    15    25 1
   25    15    34 1
   26    15    35 1
   27    16    21 ar
   28    17    19 ar
   29    18    24 1
   30    19    21 ar
   31    19    22 ar
   32    20    23 ar
   33    20    24 ar
   34    21    24 ar
   35    22    23 ar
   36    23    36 1
   37    25    26 ar
   38    25    27 ar
   39    28    37 1
@<TRIPOS>SUBSTRUCTURE
1   ****   1
@<TRIPOS>MOLECULE
1t46
69  73  1  0  0
SMALL
FORMAL_CHARGES
@<TRIPOS>ATOM
    1 C1         6.2693    -7.5468    -0.0005 C.ar       1 ****  0
    2 C2         5.0220    -6.9390    -0.0005 C.ar       1 ****  0
    3 C3         4.9618    -5.5526    -0.0004 C.ar       1 ****  0
    4 C4         6.1393    -4.8167    -0.0002 C.ar       1 ****  0
    5 N1         7.3196    -5.4290    -0.0001 N.ar       1 ****  0
    6 C5         7.4116    -6.7542    -0.0003 C.ar       1 ****  0
    7 C6         3.6659    -4.8689    -0.0004 C.ar       1 ****  0
    8 C7         2.4887    -5.6025    -0.0006 C.ar       1 ****  0
    9 C8         1.2844    -4.9141    -0.0007 C.ar       1 ****  0
   10 N2         1.2948    -3.5874    -0.0005 N.ar       1 ****  0
   11 C9         2.4394    -2.9085    -0.0003 C.ar       1 ****  0
   12 N3         3.6094    -3.5437    -0.0003 N.ar       1 ****  0
   13 N4         2.4759    -1.4383    -0.0001 N.pl3      1 ****  0
   14 C10        1.2076    -0.7041    -0.0001 C.ar       1 ****  0
   15 C11        1.2068     0.6854    -0.0000 C.ar       1 ****  0
   16 C12        0.0030     1.3801     0.0000 C.ar       1 ****  0
   17 C13       -1.2001     0.6847    -0.0001 C.ar       1 ****  0
   18 C14       -1.1993    -0.7052    -0.0002 C.ar       1 ****  0
   19 C15        0.0043    -1.3996    -0.0002 C.ar       1 ****  0
   20 N5        -2.4275    -1.4135    -0.0003 N.am       1 ****  0
   21 C16       -3.7019    -0.7923    -0.0002 C.2        1 ****  0
   22 C17       -4.9021    -1.6258    -0.0004 C.ar       1 ****  0
   23 C18       -4.7877    -3.0109    -0.0006 C.ar       1 ****  0
   24 C19       -5.9302    -3.8020    -0.0008 C.ar       1 ****  0
   25 C20       -7.1865    -3.2075    -0.0007 C.ar       1 ****  0
   26 C21       -7.3009    -1.8225    -0.0005 C.ar       1 ****  0
   27 C22       -6.1584    -1.0314    -0.0003 C.ar       1 ****  0
   28 C23       -8.4544    -4.0882    -0.0009 C.3        1 ****  0
   29 N6        -8.2976    -5.5875    -0.0009 N.3        1 ****  0
   30 C24       -7.6626    -6.1391    -1.2031 C.3        1 ****  0
   31 C25       -7.8139    -7.6715    -1.2031 C.3        1 ****  0
   32 N7        -7.1734    -8.2263    -0.0008 N.4        1 ****  1
   33 C26       -7.3163    -9.6892    -0.0009 C.3        1 ****  0
   34 C27       -7.8140    -7.6715     1.2013 C.3        1 ****  0
   35 C28       -7.6628    -6.1391     1.2013 C.3        1 ****  0
   36 O1        -3.8259     0.4373     0.0000 O.2        1 ****  0
   37 C29        2.5037     1.4351     0.0000 C.3        1 ****  0
   38 H1         6.3535    -8.6435    -0.0006 H          1 ****  0
   39 H2         4.1021    -7.5422    -0.0007 H          1 ****  0
   40 H3         6.0953    -3.7176    -0.0000 H          1 ****  0
   41 H4         8.4033    -7.2302    -0.0003 H          1 ****  0
   42 H5         2.5096    -6.7023    -0.0007 H          1 ****  0
   43 H6         0.3308    -5.4625    -0.0008 H          1 ****  0
   44 H7         3.3745    -0.9349    -0.0000 H          1 ****  0
   45 H8         0.0026     2.4801     0.0001 H          1 ****  0
   46 H9        -2.1531     1.2342    -0.0000 H          1 ****  0
   47 H10        0.0047    -2.4996    -0.0003 H          1 ****  0
   48 H11       -2.3917    -2.4429    -0.0005 H          1 ****  0
   49 H12       -3.7931    -3.4808    -0.0007 H          1 ****  0
   50 H13       -5.8403    -4.8983    -0.0010 H          1 ****  0
   51 H14       -8.2955    -1.3525    -0.0004 H          1 ****  0
   52 H15       -6.2483     0.0649    -0.0001 H          1 ****  0
   53 H16       -9.0619    -3.8117     0.8734 H          1 ****  0
   54 H17       -9.0626    -3.8120    -0.8749 H          1 ****  0
   55 H18       -8.1479    -5.7231    -2.0983 H          1 ****  0
   56 H19       -6.5944    -5.8766    -1.2086 H          1 ****  0
   57 H20       -8.8819    -7.9348    -1.2036 H          1 ****  0
   58 H21       -7.3325    -8.0887    -2.0999 H          1 ****  0
   59 H22       -6.1738    -7.9776    -0.0008 H          1 ****  0
   60 H23       -6.8344   -10.1059    -0.8976 H          1 ****  0
   61 H24       -8.3838    -9.9545    -0.0022 H          1 ****  0
   62 H25       -6.8375   -10.1050     0.8980 H          1 ****  0
   63 H26       -7.3332    -8.0868     2.0993 H          1 ****  0
   64 H27       -8.8822    -7.9341     1.2022 H          1 ****  0
   65 H28       -8.1474    -5.7234     2.0971 H          1 ****  0
   66 H29       -6.5946    -5.8764     1.2059 H          1 ****  0
   67 H30        3.0448     1.0694    -0.8852 H          1 ****  0
   68 H31        3.0448     1.0693     0.8852 H          1 ****  0
   69 H32        2.3868     2.5288     0.0001 H          1 ****  0
@<TRIPOS>BOND
    1     1     2 ar
    2     1     6 ar
    3     1    38 1
    4     2     3 ar
    5     2    39 1
    6     3     4 ar
    7     3     7 1
    8     4     5 ar
    9     4    40 1
   10     5     6 ar
   11     6    41 1
   12     7     8 ar
   13     7    12 ar
   14     8     9 ar
   15     8    42 1
   16     9    10 ar
   17     9    43 1
   18    10    11 ar
   19    11    12 ar
   20    11    13 1
   21    13    14 1
   22    13    44 1
   23    14    15 ar
   24    14    19 ar
   25    15    16 ar
   26    15    37 1
   27    16    17 ar
   28    16    45 1
   29    17    18 ar
   30    17    46 1
   31    18    19 ar
   32    18    20 1
   33    19    47 1
   34    20    21 am
   35    20    48 1
   36    21    22 1
   37    21    36 2
   38    22    23 ar
   39    22    27 ar
   40    23    24 ar
   41    23    49 1
   42    24    25 ar
   43    24    50 1
   44    25    26 ar
   45    25    28 1
   46    26    27 ar
   47    26    51 1
   48    27    52 1
   49    28    29 1
   50    28    53 1
   51    28    54 1
   52    29    30 1
   53    29    35 1
   54    30    31 1
   55    30    55 1
   56    30    56 1
   57    31    32 1
   58    31    57 1
   59    31    58 1
   60    32    33 1
   61    32    34 1
   62    32    59 1
   63    33    60 1
   64    33    61 1
   65    33    62 1
   66    34    35 1
   67    34    63 1
   68    34    64 1
   69    35    65 1
   70    35    66 1
   71    37    67 1
   72    37    68 1
   73    37    69 1
@<TRIPOS>SUBSTRUCTURE
1   ****   1
@<TRIPOS>MOLECULE
1t9b
35  36  1  0  0
SMALL
FORMAL_CHARGES
@<TRIPOS>ATOM
    1 C1         3.4766    -0.4586    -0.0013 C.3        1 ****  0
    2 O1         2.3711    -1.3642    -0.0056 O.3        1 ****  0
    3 C2         1.1798    -0.6468    -0.0036 C.ar       1 ****  0
    4 N1         1.1986     0.6794     0.0014 N.ar       1 ****  0
    5 C3         0.0593     1.3588     0.0044 C.ar       1 ****  0
    6 C4         0.0793     2.8576     0.0082 C.3        1 ****  0
    7 N2        -1.0980     0.7137     0.0027 N.ar       1 ****  0
    8 C5        -1.1160    -0.6134    -0.0033 C.ar       1 ****  0
    9 N3        -2.3220    -1.3043    -0.0078 N.am       1 ****  0
   10 C6        -3.5438    -0.6332     0.0185 C.2        1 ****  0
   11 O2        -3.5991     0.6010     0.0650 O.2        1 ****  0
   12 N4        -4.7021    -1.3826    -0.0049 N.am       1 ****  0
   13 S1        -6.2226    -0.6158     0.0813 S.O2       1 ****  0
   14 O3        -6.2774     0.1958     1.3616 O.2        1 ****  0
   15 O4        -6.3309     0.3515    -1.0822 O.2        1 ****  0
   16 C7        -7.6579    -1.7137     0.0394 C.ar       1 ****  0
   17 C8        -8.9024    -1.0958    -0.0252 C.ar       1 ****  0
   18 C9       -10.0737    -1.8407    -0.0562 C.ar       1 ****  0
   19 C10      -10.0103    -3.2258    -0.0259 C.ar       1 ****  0
   20 C11       -8.7744    -3.8532     0.0381 C.ar       1 ****  0
   21 C12       -7.5990    -3.1117     0.0735 C.ar       1 ****  0
   22 N5         0.0210    -1.2916    -0.0067 N.ar       1 ****  0
   23 Cl1       -6.1303    -3.9895     0.1640 Cl         1 ****  0
   24 H1         3.4316     0.1546     0.8742 H          1 ****  0
   25 H2         3.4327     0.1615    -0.8720 H          1 ****  0
   26 H3         4.3944    -1.0123    -0.0029 H          1 ****  0
   27 H4         0.6760     3.1232    -0.8649 H          1 ****  0
   28 H5         0.6780     3.1187     0.8813 H          1 ****  0
   29 H6        -0.8311     3.2675     0.0103 H          1 ****  0
   30 H7        -2.3138    -2.2986    -0.0267 H          1 ****  0
   31 H8        -4.6295    -2.3394    -0.0748 H          1 ****  0
   32 H9        -8.9580    -0.0276    -0.0515 H          1 ****  0
   33 H10      -11.0222    -1.3477    -0.1034 H          1 ****  0
   34 H11      -10.9085    -3.8067    -0.0516 H          1 ****  0
   35 H12       -8.7254    -4.9218     0.0604 H          1 ****  0
@<TRIPOS>BOND
    1     1     2 1
    2     1    24 1
    3     1    25 1
    4     1    26 1
    5     2     3 1
    6     3     4 ar
    7     3    22 ar
    8     4     5 ar
    9     5     6 1
   10     5     7 ar
   11     6    27 1
   12     6    28 1
   13     6    29 1
   14     7     8 ar
   15     8     9 1
   16     8    22 ar
   17     9    10 am
   18     9    30 1
   19    10    11 2
   20    10    12 am
   21    12    13 am
   22    12    31 1
   23    13    14 2
   24    13    15 2
   25    13    16 1
   26    16    17 ar
   27    16    21 ar
   28    17    18 ar
   29    17    32 1
   30    18    19 ar
   31    18    33 1
   32    19    20 ar
   33    19    34 1
   34    20    21 ar
   35    20    35 1
   36    21    23 1
@<TRIPOS>SUBSTRUCTURE
1   ****   1
@<TRIPOS>MOLECULE
1tow
33  35  1  0  0
SMALL
FORMAL_CHARGES
@<TRIPOS>ATOM
    1 O1         6.7690     2.4771     0.0020 O.co2      1 ****  -0.50
    2 C1         5.6049     2.0600     0.0014 C.2        1 ****  0.0000
    3 O2         4.5698     2.9389     0.0012 O.co2      1 ****  -0.50
    4 C2         5.3422     0.5798     0.0010 C.3        1 ****  0
    5 C3         3.8254     0.2957     0.0007 C.3        1 ****  0
    6 C4         3.6139    -1.2358     0.0002 C.3        1 ****  0
    7 N1         2.2175    -1.5712    -0.0001 N.ar       1 ****  0
    8 C5         1.2079    -0.7016    -0.0001 C.ar       1 ****  0
    9 C6         1.2454     0.6826     0.0001 C.ar       1 ****  0
   10 C7         0.0140    -1.3890    -0.0003 C.ar       1 ****  0
   11 C8        -1.2152    -0.7528    -0.0003 C.ar       1 ****  0
   12 C9        -1.1909     0.6414    -0.0001 C.ar       1 ****  0
   13 C10        0.0183     1.3458     0.0001 C.ar       1 ****  0
   14 C11        0.3359    -2.7324    -0.0005 C.ar       1 ****  0
   15 C12        1.7118    -2.8039    -0.0003 C.ar       1 ****  0
   16 C13        2.3726    -4.0207    -0.0004 C.ar       1 ****  0
   17 C14       -0.4713    -3.8567    -0.0007 C.ar       1 ****  0
   18 C15        0.1824    -5.0884    -0.0008 C.ar       1 ****  0
   19 C16        1.5795    -5.1681    -0.0006 C.ar       1 ****  0
   20 H1         5.7961     0.1302    -0.8944 H          1 ****  0
   21 H2         5.7958     0.1288     0.8959 H          1 ****  0
   22 H3         3.3681     0.7306     0.9016 H          1 ****  0
   23 H4         3.3675     0.7310    -0.8998 H          1 ****  0
   24 H5         4.0882    -1.6685     0.8935 H          1 ****  0
   25 H6         4.0885    -1.6671    -0.8935 H          1 ****  0
   26 H7         2.1977     1.2331     0.0003 H          1 ****  0
   27 H8        -2.1599    -1.3164    -0.0005 H          1 ****  0
   28 H9        -2.1398     1.1979    -0.0001 H          1 ****  0
   29 H10        0.0007     2.4456     0.0003 H          1 ****  0
   30 H11        3.4710    -4.0797    -0.0003 H          1 ****  0
   31 H12       -1.5688    -3.7826    -0.0008 H          1 ****  0
   32 H13       -0.4112    -6.0146    -0.0010 H          1 ****  0
   33 H14        2.0624    -6.1565    -0.0007 H          1 ****  0
@<TRIPOS>BOND
    1     1     2 ar
    2     2     3 ar
    3     2     4 1
    4     4     5 1
    5     4    20 1
    6     4    21 1
    7     5     6 1
    8     5    22 1
    9     5    23 1
   10     6     7 1
   11     6    24 1
   12     6    25 1
   13     7     8 ar
   14     7    15 ar
   15     8     9 ar
   16     8    10 ar
   17     9    13 ar
   18     9    26 1
   19    10    11 ar
   20    10    14 ar
   21    11    12 ar
   22    11    27 1
   23    12    13 ar
   24    12    28 1
   25    13    29 1
   26    14    15 ar
   27    14    17 ar
   28    15    16 ar
   29    16    19 ar
   30    16    30 1
   31    17    18 ar
   32    17    31 1
   33    18    19 ar
   34    18    32 1
   35    19    33 1
@<TRIPOS>SUBSTRUCTURE
1   ****   1
@<TRIPOS>MOLECULE
1tt1
29  29  1  0  0
SMALL
FORMAL_CHARGES
@<TRIPOS>ATOM
    1 N1         0.6440    -1.0515     0.2800 N.4        1 ****  1
    2 C1         1.2261     0.3044    -0.0399 C.3        1 ****  0
    3 C2         0.1553     2.7680     1.4517 C.2        1 ****  0
    4 C3        -0.0775     3.7171    -0.7987 C.3        1 ****  0
    5 C4        -0.7075    -1.0894    -0.3119 C.3        1 ****  0
    6 C5        -1.2455     0.3108    -0.8954 C.3        1 ****  0
    7 C6        -2.6080     0.7579    -0.1713 C.3        1 ****  0
    8 C7        -0.0315     1.1552    -0.3897 C.3        1 ****  0
    9 C8        -2.9201     0.9373    -1.6516 C.2        1 ****  0.0000
   10 C9         0.0150     2.5549     0.1454 C.2        1 ****  0
   11 C10       -0.6884    -1.2101    -1.8231 C.2        1 ****  0.0000
   12 O1         0.2886    -0.8238    -2.4899 O.co2      1 ****  -0.50
   13 O2        -4.0927     1.1126    -1.9978 O.co2      1 ****  -0.50
   14 O3        -1.9464     0.9897    -2.5910 O.co2      1 ****  -0.50
   15 O4        -1.7151    -1.8253    -2.4567 O.co2      1 ****  -0.50
   16 H1         1.2435    -1.8401     0.0015 H          1 ****  0
   17 H2         0.5104    -1.0649     1.2988 H          1 ****  0
   18 H3         1.8512     0.2378    -0.8731 H          1 ****  0
   19 H4         1.6980     0.6999     0.8064 H          1 ****  0
   20 H5         0.2021     3.7683     1.8285 H          1 ****  0
   21 H6         0.2212     1.9391     2.1250 H          1 ****  0
   22 H7         0.8251     4.2972    -0.6044 H          1 ****  0
   23 H8        -0.9113     4.3089    -0.4198 H          1 ****  0
   24 H9        -0.1809     3.4462    -1.7540 H          1 ****  0
   25 H10       -1.3195    -1.9083     0.0994 H          1 ****  0
   26 H11       -1.3368     0.3269    -1.9893 H          1 ****  0
   27 H12       -2.8209     1.7067     0.3488 H          1 ****  0
   28 H13       -3.3290     0.0361     0.2547 H          1 ****  0
   29 H14       -0.1387     1.1712    -1.4714 H          1 ****  0
@<TRIPOS>BOND
    1     1     2 1
    2     1     5 1
    3     1    16 1
    4     1    17 1
    5     2     8 1
    6     2    18 1
    7     2    19 1
    8     3    10 2
    9     3    20 1
   10     3    21 1
   11     4    10 1
   12     4    22 1
   13     4    23 1
   14     4    24 1
   15     5     6 1
   16     5    11 1
   17     5    25 1
   18     6     7 1
   19     6     8 1
   20     6    26 1
   21     7     9 1
   22     7    27 1
   23     7    28 1
   24     8    10 1
   25     8    29 1
   26     9    13 ar
   27     9    14 ar
   28    11    12 ar
   29    11    15 ar
@<TRIPOS>SUBSTRUCTURE
1   ****   1
@<TRIPOS>MOLECULE
1tz8
40  41  1  0  0
SMALL
FORMAL_CHARGES
@<TRIPOS>ATOM
    1 C1         2.2956    -3.3307     1.6632 C.3        1 ****  0
    2 C2         2.3288    -2.9540     0.1594 C.3        1 ****  0
    3 C3         2.5306    -1.4577    -0.0015 C.2        1 ****  0
    4 C4         1.1920    -0.6884    -0.0001 C.ar       1 ****  0
    5 C5         1.1928     0.7015     0.0001 C.ar       1 ****  0
    6 C6        -0.0106     1.3965     0.0001 C.ar       1 ****  0
    7 C7        -1.2141     0.7012    -0.0001 C.ar       1 ****  0
    8 O1        -2.4168     1.3951    -0.0001 O.3        1 ****  0
    9 C8        -1.2147    -0.6886    -0.0003 C.ar       1 ****  0
   10 C9        -0.0114    -1.3835    -0.0003 C.ar       1 ****  0
   11 C10        3.7914    -0.9004    -0.1287 C.2        1 ****  0
   12 C11        5.1359    -1.6741    -0.1300 C.ar       1 ****  0
   13 C12        5.2481    -3.0617    -0.1488 C.ar       1 ****  0
   14 C13        6.5014    -3.6613    -0.1831 C.ar       1 ****  0
   15 C14        7.6473    -2.8749    -0.1988 C.ar       1 ****  0
   16 O2         8.8998    -3.4734    -0.2330 O.3        1 ****  0
   17 C15        7.5406    -1.4893    -0.1803 C.ar       1 ****  0
   18 C16        6.2874    -0.8898    -0.1461 C.ar       1 ****  0
   19 C17        3.9933     0.5959    -0.2895 C.3        1 ****  0
   20 C18        4.0272     0.9727    -1.7933 C.3        1 ****  0
   21 H1         1.4691    -2.7946     2.1525 H          1 ****  0
   22 H2         3.2467    -3.0366     2.1311 H          1 ****  0
   23 H3         2.1493    -4.4154     1.7728 H          1 ****  0
   24 H4         3.1551    -3.4880    -0.3326 H          1 ****  0
   25 H5         1.3789    -3.2461    -0.3122 H          1 ****  0
   26 H6         2.1457     1.2512     0.0003 H          1 ****  0
   27 H7        -0.0107     2.4965     0.0003 H          1 ****  0
   28 H8        -2.3730     1.9819    -0.7962 H          1 ****  0
   29 H9        -2.1675    -1.2383    -0.0004 H          1 ****  0
   30 H10       -0.0113    -2.4835    -0.0004 H          1 ****  0
   31 H11        4.3421    -3.6854    -0.1365 H          1 ****  0
   32 H12        6.5865    -4.7579    -0.1977 H          1 ****  0
   33 H13        8.8842    -4.0524    -1.0359 H          1 ****  0
   34 H14        8.4478    -0.8674    -0.1928 H          1 ****  0
   35 H15        6.2043     0.2070    -0.1316 H          1 ****  0
   36 H16        4.9431     0.8897     0.1811 H          1 ****  0
   37 H17        3.1668     1.1305     0.2015 H          1 ****  0
   38 H18        3.0764     0.6785    -2.2617 H          1 ****  0
   39 H19        4.8540     0.4366    -2.2822 H          1 ****  0
   40 H20        4.1736     2.0574    -1.9028 H          1 ****  0
@<TRIPOS>BOND
    1     1     2 1
    2     1    21 1
    3     1    22 1
    4     1    23 1
    5     2     3 1
    6     2    24 1
    7     2    25 1
    8     3     4 1
    9     3    11 2
   10     4     5 ar
   11     4    10 ar
   12     5     6 ar
   13     5    26 1
   14     6     7 ar
   15     6    27 1
   16     7     8 1
   17     7     9 ar
   18     8    28 1
   19     9    10 ar
   20     9    29 1
   21    10    30 1
   22    11    12 1
   23    11    19 1
   24    12    13 ar
   25    12    18 ar
   26    13    14 ar
   27    13    31 1
   28    14    15 ar
   29    14    32 1
   30    15    16 1
   31    15    17 ar
   32    16    33 1
   33    17    18 ar
   34    17    34 1
   35    18    35 1
   36    19    20 1
   37    19    36 1
   38    19    37 1
   39    20    38 1
   40    20    39 1
   41    20    40 1
@<TRIPOS>SUBSTRUCTURE
1   ****   1
@<TRIPOS>MOLECULE
1u1c
36  37  1  0  0
SMALL
FORMAL_CHARGES
@<TRIPOS>ATOM
    1 O1         4.3847    -5.7338    -0.0001 O.3        1 ****  0
    2 C1         3.1399    -5.0293    -0.0001 C.3        1 ****  0
    3 C2         3.4106    -3.5144    -0.0001 C.3        1 ****  0
    4 O2         2.1695    -2.8047    -0.0001 O.3        1 ****  0
    5 C3         2.4334    -1.3993    -0.0001 C.3        1 ****  0
    6 N1         1.1975    -0.6770    -0.0001 N.am       1 ****  0
    7 C4         1.2106     0.7223    -0.0000 C.2        1 ****  0
    8 O3         2.2881     1.3294     0.0000 O.2        1 ****  0
    9 N2         0.0115     1.4313    -0.0000 N.am       1 ****  0
   10 C5        -1.1903     0.7352    -0.0001 C.2        1 ****  0
   11 O4        -2.2649     1.3472    -0.0001 O.2        1 ****  0
   12 C6        -0.0168    -1.3770    -0.0002 C.2        1 ****  0
   13 C7        -1.1767    -0.7224    -0.0002 C.2        1 ****  0
   14 C8        -2.5062    -1.5107    -0.0004 C.3        1 ****  0
   15 C9        -2.5334    -3.0658    -0.0002 C.ar       1 ****  0
   16 C10       -1.3893    -3.8556    -0.0005 C.ar       1 ****  0
   17 C11       -1.4983    -5.2419    -0.0004 C.ar       1 ****  0
   18 C12       -2.7523    -5.8398    -0.0000 C.ar       1 ****  0
   19 C13       -3.8983    -5.0525     0.0003 C.ar       1 ****  0
   20 C14       -3.7895    -3.6675     0.0002 C.ar       1 ****  0
   21 H1         4.9026    -5.4919     0.8082 H          1 ****  0
   22 H2         2.5656    -5.2988    -0.8987 H          1 ****  0
   23 H3         2.5647    -5.2985     0.8980 H          1 ****  0
   24 H4         3.9859    -3.2449     0.8980 H          1 ****  0
   25 H5         3.9862    -3.2440    -0.8976 H          1 ****  0
   26 H6         3.0112    -1.1351     0.8979 H          1 ****  0
   27 H7         3.0116    -1.1341    -0.8975 H          1 ****  0
   28 H8         0.0161     2.4613     0.0000 H          1 ****  0
   29 H9        -0.0117    -2.4770    -0.0003 H          1 ****  0
   30 H10       -3.0923    -1.1699     0.8659 H          1 ****  0
   31 H11       -3.0929    -1.1704    -0.8664 H          1 ****  0
   32 H12       -0.3960    -3.3830    -0.0008 H          1 ****  0
   33 H13       -0.5917    -5.8650    -0.0007 H          1 ****  0
   34 H14       -2.8385    -6.9364     0.0000 H          1 ****  0
   35 H15       -4.8911    -5.5262     0.0006 H          1 ****  0
   36 H16       -4.6966    -3.0453     0.0005 H          1 ****  0
@<TRIPOS>BOND
    1     1     2 1
    2     1    21 1
    3     2     3 1
    4     2    22 1
    5     2    23 1
    6     3     4 1
    7     3    24 1
    8     3    25 1
    9     4     5 1
   10     5     6 1
   11     5    26 1
   12     5    27 1
   13     6     7 am
   14     6    12 1
   15     7     8 2
   16     7     9 am
   17     9    10 am
   18     9    28 1
   19    10    11 2
   20    10    13 1
   21    12    13 2
   22    12    29 1
   23    13    14 1
   24    14    15 1
   25    14    30 1
   26    14    31 1
   27    15    16 ar
   28    15    20 ar
   29    16    17 ar
   30    16    32 1
   31    17    18 ar
   32    17    33 1
   33    18    19 ar
   34    18    34 1
   35    19    20 ar
   36    19    35 1
   37    20    36 1
@<TRIPOS>SUBSTRUCTURE
1   ****   1
@<TRIPOS>MOLECULE
1u4d
29  31  1  0  0
SMALL
FORMAL_CHARGES
@<TRIPOS>ATOM
    1 O1         2.8625    -0.4606     0.4482 O.2        1 ****  0
    2 C1         1.6631    -0.2564     0.2326 C.2        1 ****  0
    3 N1         1.1872     1.0333     0.3634 N.am       1 ****  0
    4 C2        -0.0502     1.4330    -0.2062 C.3        1 ****  0
    5 C3        -1.2457     0.8798     0.5572 C.3        1 ****  0
    6 C4         0.8414    -1.3789    -0.2189 C.ar       1 ****  0
    7 N2         1.3869    -2.5193    -0.6316 N.ar       1 ****  0
    8 C5         0.4570    -3.3958    -0.9744 C.ar       1 ****  0
    9 C6        -0.7782    -2.7926    -0.7649 C.ar       1 ****  0
   10 C7        -0.5419    -1.5152    -0.2788 C.ar       1 ****  0
   11 C8        -1.6182    -0.5163     0.1348 C.2        1 ****  0
   12 C9        -2.9459    -0.7986     0.1528 C.2        1 ****  0
   13 N3        -3.5123    -2.0514    -0.2000 N.3        1 ****  0
   14 C10       -4.9429    -1.9249    -0.0317 C.2        1 ****  0
   15 N4        -5.8873    -2.9690    -0.2774 N.3        1 ****  0
   16 N5        -5.2771    -0.7572     0.3692 N.am       1 ****  0
   17 C11       -4.1177     0.0206     0.5132 C.2        1 ****  0
   18 O2        -4.1436     1.1982     0.8694 O.2        1 ****  0
   19 H1         1.7956     1.7309     0.7270 H          1 ****  0
   20 H2        -0.1034     2.5158    -0.2154 H          1 ****  0
   21 H3        -0.0953     1.0928    -1.2317 H          1 ****  0
   22 H4        -2.0975     1.5339     0.4078 H          1 ****  0
   23 H5        -1.0205     0.8807     1.6208 H          1 ****  0
   24 H6         2.3643    -2.6875    -0.6753 H          1 ****  0
   25 H7         0.6245    -4.3857    -1.3443 H          1 ****  0
   26 H8        -1.7363    -3.2334    -0.9458 H          1 ****  0
   27 H9        -3.0140    -2.8978    -0.5113 H          1 ****  0
   28 H10       -5.5677    -3.8914    -0.5976 H          1 ****  0
   29 H11       -6.8932    -2.7937    -0.1290 H          1 ****  0
@<TRIPOS>BOND
    1     1     2 2
    2     2     3 am
    3     2     6 1
    4     3     4 1
    5     3    19 1
    6     4     5 1
    7     4    20 1
    8     4    21 1
    9     5    11 1
   10     5    22 1
   11     5    23 1
   12     6     7 ar
   13     6    10 ar
   14     7     8 ar
   15     7    24 1
   16     8     9 ar
   17     8    25 1
   18     9    10 ar
   19     9    26 1
   20    10    11 1
   21    11    12 2
   22    12    13 1
   23    12    17 1
   24    13    14 1
   25    13    27 1
   26    14    15 1
   27    14    16 2
   28    15    28 1
   29    15    29 1
   30    16    17 am
   31    17    18 2
@<TRIPOS>SUBSTRUCTURE
1   ****   1
@<TRIPOS>MOLECULE
1uml
60  63  1  0  0
SMALL
FORMAL_CHARGES
@<TRIPOS>ATOM
    1 C1         7.0609     3.2528    -0.1862 C.ar       1 ****  0
    2 N1         6.2094     4.2558    -0.1410 N.ar       1 ****  0
    3 C2         6.8211     5.4258    -0.1941 C.ar       1 ****  0
    4 N2         8.1290     5.1943    -0.2779 N.ar       1 ****  0
    5 C3         8.2935     3.8786    -0.2744 C.ar       1 ****  0
    6 C4         9.5816     3.1924    -0.3519 C.2        1 ****  0
    7 O1         9.6252     1.9570    -0.3412 O.2        1 ****  0
    8 N3        10.7630     3.9319    -0.4379 N.am       1 ****  0
    9 C5         5.2387     3.6088     0.8153 C.3        1 ****  0
   10 C6         4.2775     4.7517     1.2544 C.3        1 ****  0
   11 O2         4.8801     4.0920     2.3714 O.3        1 ****  0
   12 C7         4.3827     2.6174    -0.0701 C.3        1 ****  0
   13 C8         2.8455     2.5054    -0.0001 C.3        1 ****  0
   14 N4         2.4372     1.1308     0.0001 N.ar       1 ****  0
   15 C9         3.2677     0.0847    -0.0001 C.ar       1 ****  0
   16 C10        2.5069    -1.0896    -0.0003 C.ar       1 ****  0
   17 C11        1.1894    -0.6599    -0.0002 C.ar       1 ****  0
   18 C12        1.1832     0.7090    -0.0000 C.ar       1 ****  0
   19 C13        0.0198    -1.4007    -0.0004 C.ar       1 ****  0
   20 C14       -1.1765    -0.6847    -0.0003 C.ar       1 ****  0
   21 C15       -1.1856     0.7141    -0.0001 C.ar       1 ****  0
   22 C16        0.0060     1.4388     0.0001 C.ar       1 ****  0
   23 N5        -2.4256     1.4033    -0.0000 N.am       1 ****  0
   24 C17       -3.6935     0.7659    -0.0001 C.2        1 ****  0
   25 O3        -3.8015    -0.4656    -0.0001 O.2        1 ****  0
   26 C18       -4.9371     1.6096    -0.0001 C.3        1 ****  0
   27 C19       -6.1810     0.6968    -0.0002 C.3        1 ****  0
   28 C20       -7.3574     2.9160    -0.0001 C.ar       1 ****  0
   29 C21       -7.4377     1.5294    -0.0003 C.ar       1 ****  0
   30 C22       -8.6799     0.9042    -0.0005 C.ar       1 ****  0
   31 C23       -9.8409     1.6671    -0.0005 C.ar       1 ****  0
   32 C24       -9.7605     3.0552    -0.0004 C.ar       1 ****  0
   33 C25       -8.5195     3.6796    -0.0001 C.ar       1 ****  0
   34 H1         6.8449     2.1745    -0.1602 H          1 ****  0
   35 H2         6.3367     6.4131    -0.1730 H          1 ****  0
   36 H3        10.7266     4.9612    -0.4468 H          1 ****  0
   37 H4        11.6707     3.4481    -0.4925 H          1 ****  0
   38 H5         5.6986     3.1102     1.6813 H          1 ****  0
   39 H6         4.5515     5.8169     1.2665 H          1 ****  0
   40 H7         3.1838     4.6529     1.3172 H          1 ****  0
   41 H8         5.8647     4.1807     2.3174 H          1 ****  0
   42 H9         4.7428     2.1531    -1.0001 H          1 ****  0
   43 H10        4.8279     2.1060     0.7961 H          1 ****  0
   44 H11        2.4024     3.0150    -0.8684 H          1 ****  0
   45 H12        2.4867     2.9903     0.9198 H          1 ****  0
   46 H13        4.3664     0.1375    -0.0001 H          1 ****  0
   47 H14        2.8740    -2.1265    -0.0005 H          1 ****  0
   48 H15        0.0337    -2.5006    -0.0005 H          1 ****  0
   49 H16       -2.1316    -1.2303    -0.0004 H          1 ****  0
   50 H17        0.0107     2.5388     0.0003 H          1 ****  0
   51 H18       -2.4043     2.4331     0.0001 H          1 ****  0
   52 H19       -4.9493     2.2445     0.8981 H          1 ****  0
   53 H20       -4.9500     2.2454    -0.8977 H          1 ****  0
   54 H21       -6.1671     0.0589     0.8958 H          1 ****  0
   55 H22       -6.1662     0.0598    -0.8969 H          1 ****  0
   56 H23       -6.3745     3.4101     0.0001 H          1 ****  0
   57 H24       -8.7431    -0.1939    -0.0006 H          1 ****  0
   58 H25      -10.8237     1.1731    -0.0007 H          1 ****  0
   59 H26      -10.6799     3.6592    -0.0004 H          1 ****  0
   60 H27       -8.4563     4.7778    -0.0000 H          1 ****  0
@<TRIPOS>BOND
    1     1     2 ar
    2     1     5 ar
    3     1    34 1
    4     2     3 ar
    5     2     9 1
    6     3     4 ar
    7     3    35 1
    8     4     5 ar
    9     5     6 1
   10     6     7 2
   11     6     8 am
   12     8    36 1
   13     8    37 1
   14     9    10 1
   15     9    12 1
   16     9    38 1
   17    10    11 1
   18    10    39 1
   19    10    40 1
   20    11    41 1
   21    12    13 1
   22    12    42 1
   23    12    43 1
   24    13    14 1
   25    13    44 1
   26    13    45 1
   27    14    15 ar
   28    14    18 ar
   29    15    16 ar
   30    15    46 1
   31    16    17 ar
   32    16    47 1
   33    17    18 ar
   34    17    19 ar
   35    18    22 ar
   36    19    20 ar
   37    19    48 1
   38    20    21 ar
   39    20    49 1
   40    21    22 ar
   41    21    23 1
   42    22    50 1
   43    23    24 am
   44    23    51 1
   45    24    25 2
   46    24    26 1
   47    26    27 1
   48    26    52 1
   49    26    53 1
   50    27    29 1
   51    27    54 1
   52    27    55 1
   53    28    29 ar
   54    28    33 ar
   55    28    56 1
   56    29    30 ar
   57    30    31 ar
   58    30    57 1
   59    31    32 ar
   60    31    58 1
   61    32    33 ar
   62    32    59 1
   63    33    60 1
@<TRIPOS>SUBSTRUCTURE
1   ****   1
@<TRIPOS>MOLECULE
1unl
52  54  1  0  0
SMALL
FORMAL_CHARGES
@<TRIPOS>ATOM
    1 O1         5.9975    -0.4991    -0.1244 O.3        1 ****  0
    2 C1         4.8435    -1.3429    -0.1556 C.3        1 ****  0
    3 C2         3.6622    -1.2312     0.8349 C.3        1 ****  0
    4 C3         3.6608     0.2427     1.3881 C.3        1 ****  0
    5 C4         3.7520    -0.7890     2.5287 C.3        1 ****  0
    6 N1         2.3914    -1.3789     0.0006 N.pl3      1 ****  0
    7 C5         1.1526    -0.6428    -0.0003 C.ar       1 ****  0
    8 N2         1.1930     0.6920    -0.0001 N.ar       1 ****  0
    9 C6         0.0403     1.3391     0.0000 C.ar       1 ****  0
   10 N3        -0.2313     2.6284     0.0001 N.ar       1 ****  0
   11 C7         0.7361     3.6945     0.0005 C.3        1 ****  0
   12 C8         0.0374     5.0711     0.0203 C.3        1 ****  0
   13 C9         1.6567     3.5624     1.2291 C.3        1 ****  0
   14 C10       -1.5588     2.7789     0.0002 C.ar       1 ****  0
   15 C11       -1.1526     0.6815    -0.0000 C.ar       1 ****  0
   16 N4        -2.1376     1.5695     0.0001 N.ar       1 ****  0
   17 N5        -0.0037    -1.3199    -0.0003 N.ar       1 ****  0
   18 C12       -1.1813    -0.6981    -0.0002 C.ar       1 ****  0
   19 N6        -2.4135    -1.4248    -0.0003 N.pl3      1 ****  0
   20 C13       -2.1399    -2.8707    -0.0004 C.3        1 ****  0
   21 C14       -3.4373    -3.6319    -0.0006 C.ar       1 ****  0
   22 C15       -4.6449    -2.9457    -0.0007 C.ar       1 ****  0
   23 C16       -5.8442    -3.6495    -0.0009 C.ar       1 ****  0
   24 C17       -5.8339    -5.0387    -0.0010 C.ar       1 ****  0
   25 C18       -4.6250    -5.7255    -0.0009 C.ar       1 ****  0
   26 C19       -3.4268    -5.0223    -0.0007 C.ar       1 ****  0
   27 H1         6.0392    -0.0291     0.7460 H          1 ****  0
   28 H2         4.7971    -1.8647    -1.1228 H          1 ****  0
   29 H3         4.9071    -2.0825     0.6562 H          1 ****  0
   30 H4         3.7509    -1.9732     1.6421 H          1 ****  0
   31 H5         4.5547     0.8835     1.4025 H          1 ****  0
   32 H6         2.7642     0.8644     1.5287 H          1 ****  0
   33 H7         4.6490    -1.4102     2.3889 H          1 ****  0
   34 H8         2.8582    -1.4299     2.5144 H          1 ****  0
   35 H9         3.8139    -0.2669     3.4949 H          1 ****  0
   36 H10        2.4476    -2.4072    -0.0158 H          1 ****  0
   37 H11        1.3348     3.6203    -0.9193 H          1 ****  0
   38 H12       -0.5864     5.1417     0.9236 H          1 ****  0
   39 H13       -0.6042     5.1584    -0.8689 H          1 ****  0
   40 H14        0.7877     5.8755     0.0204 H          1 ****  0
   41 H15        2.1784     2.5946     1.1924 H          1 ****  0
   42 H16        1.0520     3.6164     2.1464 H          1 ****  0
   43 H17        2.3949     4.3779     1.2272 H          1 ****  0
   44 H18       -2.0917     3.7412     0.0003 H          1 ****  0
   45 H19       -3.3516    -0.9996    -0.0002 H          1 ****  0
   46 H20       -1.5613    -3.1350     0.8969 H          1 ****  0
   47 H21       -1.5615    -3.1338    -0.8983 H          1 ****  0
   48 H22       -4.6525    -1.8457    -0.0006 H          1 ****  0
   49 H23       -6.8008    -3.1064    -0.0010 H          1 ****  0
   50 H24       -6.7826    -5.5955    -0.0011 H          1 ****  0
   51 H25       -4.6173    -6.8254    -0.0010 H          1 ****  0
   52 H26       -2.4702    -5.5654    -0.0006 H          1 ****  0
@<TRIPOS>BOND
    1     1     2 1
    2     1    27 1
    3     2     3 1
    4     2    28 1
    5     2    29 1
    6     3     4 1
    7     3     6 1
    8     3    30 1
    9     4     5 1
   10     4    31 1
   11     4    32 1
   12     5    33 1
   13     5    34 1
   14     5    35 1
   15     6     7 1
   16     6    36 1
   17     7     8 ar
   18     7    17 ar
   19     8     9 ar
   20     9    10 ar
   21     9    15 ar
   22    10    11 1
   23    10    14 ar
   24    11    12 1
   25    11    13 1
   26    11    37 1
   27    12    38 1
   28    12    39 1
   29    12    40 1
   30    13    41 1
   31    13    42 1
   32    13    43 1
   33    14    16 ar
   34    14    44 1
   35    15    16 ar
   36    15    18 ar
   37    17    18 ar
   38    18    19 1
   39    19    20 1
   40    19    45 1
   41    20    21 1
   42    20    46 1
   43    20    47 1
   44    21    22 ar
   45    21    26 ar
   46    22    23 ar
   47    22    48 1
   48    23    24 ar
   49    23    49 1
   50    24    25 ar
   51    24    50 1
   52    25    26 ar
   53    25    51 1
   54    26    52 1
@<TRIPOS>SUBSTRUCTURE
1   ****   1
@<TRIPOS>MOLECULE
1uou
27  28  1  0  0
SMALL
FORMAL_CHARGES
@<TRIPOS>ATOM
    1 Cl1        2.6963    -1.4967    -0.0001 Cl         1 ****  0
    2 C1         1.1999    -0.6545    -0.0001 C.2        1 ****  0
    3 C2         1.1857     0.6773    -0.0000 C.2        1 ****  0
    4 C3         2.5076     1.4544     0.0001 C.3        1 ****  0
    5 N1         2.4610     2.9266     0.0006 N.3        1 ****  0
    6 C4         1.2915     3.7320     0.0008 C.3        1 ****  0
    7 C5         1.8635     5.1023     0.5046 C.3        1 ****  0
    8 C6         3.3475     5.1084     0.0201 C.3        1 ****  0
    9 C7         3.6150     3.6506     0.0017 C.2        1 ****  0
   10 N2         4.7798     3.1460    -0.0271 N.2        1 ****  1
   11 N3        -0.0302     1.3750    -0.0000 N.am       1 ****  -1
   12 C8        -1.2476     0.6862    -0.0001 C.2        1 ****  0
   13 O1        -2.3129     1.3144    -0.0001 O.2        1 ****  0
   14 N4        -1.2598    -0.7065    -0.0002 N.am       1 ****  0
   15 C9        -0.0545    -1.3973    -0.0003 C.2        1 ****  0
   16 O2        -0.0449    -2.6338    -0.0004 O.2        1 ****  0
   17 H1         3.0932     1.1355    -0.8748 H          1 ****  0
   18 H2         3.0924     1.1346     0.8752 H          1 ****  0
   19 H3         0.5508     3.3436     0.7153 H          1 ****  0
   20 H4         0.8924     3.8384    -1.0187 H          1 ****  0
   21 H5         1.3123     5.9346     0.0425 H          1 ****  0
   22 H6         1.8254     5.1477     1.6030 H          1 ****  0
   23 H7         3.9912     5.6124     0.7560 H          1 ****  0
   24 H8         3.4192     5.5296    -0.9936 H          1 ****  0
   25 H9         4.8384     2.1180    -0.0530 H          1 ****  0
   26 H10        5.6321     3.7244    -0.0252 H          1 ****  0
   27 H11       -2.1532    -1.2190    -0.0003 H          1 ****  0
@<TRIPOS>BOND
    1     1     2 1
    2     2     3 2
    3     2    15 1
    4     3     4 1
    5     3    11 1
    6     4     5 1
    7     4    17 1
    8     4    18 1
    9     5     6 1
   10     5     9 1
   11     6     7 1
   12     6    19 1
   13     6    20 1
   14     7     8 1
   15     7    21 1
   16     7    22 1
   17     8     9 1
   18     8    23 1
   19     8    24 1
   20     9    10 2
   21    10    25 1
   22    10    26 1
   23    11    12 1
   24    12    13 2
   25    12    14 am
   26    14    15 am
   27    14    27 1
   28    15    16 2
@<TRIPOS>SUBSTRUCTURE
1   ****   1
@<TRIPOS>MOLECULE
1v0p
54  56  1  0  0
SMALL
FORMAL_CHARGES
@<TRIPOS>ATOM
    1 N1         1.1410    -0.6634    -0.0003 N.ar       1 ****  0
    2 C1        -2.8315     2.4846     0.0006 C.3        1 ****  0
    3 N2        -2.3920     1.1137     0.0001 N.ar       1 ****  0
    4 C2        -1.1396     0.7043     0.0000 C.ar       1 ****  0
    5 N3        -0.0029     1.3790     0.0001 N.ar       1 ****  0
    6 C3         1.1329     0.6765    -0.0000 C.ar       1 ****  0
    7 C4         0.0138    -1.3723    -0.0004 C.ar       1 ****  0
    8 C5        -1.1667    -0.6576    -0.0002 C.ar       1 ****  0
    9 N4        -2.4282    -1.0666    -0.0003 N.ar       1 ****  0
   10 C6        -3.1861     0.0394    -0.0001 C.ar       1 ****  0
   11 N5         0.0295    -2.8393    -0.0006 N.pl3      1 ****  0
   12 C7         1.3241    -3.5471    -0.0008 C.ar       1 ****  0
   13 C8         2.5472    -2.8858    -0.0007 C.ar       1 ****  0
   14 C9         3.7328    -3.6111    -0.0009 C.ar       1 ****  0
   15 C10        3.6964    -5.0003    -0.0012 C.ar       1 ****  0
   16 C11        2.4752    -5.6636    -0.0013 C.ar       1 ****  0
   17 Cl1        2.4321    -7.3800    -0.0016 Cl         1 ****  0
   18 C12        1.2899    -4.9386    -0.0011 C.ar       1 ****  0
   19 C13        4.9448    -5.7658    -0.0014 C.2        1 ****  0.0000
   20 O1         6.0316    -5.1762    -0.0013 O.co2      1 ****  -0.50
   21 O2         4.9095    -7.1239    -0.0016 O.co2      1 ****  -0.50
   22 N6         2.3900     1.3799    -0.0008 N.pl3      1 ****  0
   23 C14        3.6016     1.2074    -0.8305 C.3        1 ****  0
   24 C15        3.5549    -0.2977    -1.3992 C.3        1 ****  0
   25 C16        3.6978     0.7119    -2.5531 C.3        1 ****  0
   26 C17        4.6664    -1.3644    -1.4857 C.3        1 ****  0
   27 C18        4.8354     1.3147     0.1557 C.3        1 ****  0
   28 O3         6.0146     0.5105     0.2629 O.3        1 ****  0
   29 C19       -4.3731     2.5679     0.0202 C.3        1 ****  0
   30 C20       -2.2569     3.2156     1.2293 C.3        1 ****  0
   31 H1        -2.4678     2.9660    -0.9192 H          1 ****  0
   32 H2        -4.2859     0.0590    -0.0001 H          1 ****  0
   33 H3        -0.8536    -3.3693    -0.0007 H          1 ****  0
   34 H4         2.5765    -1.7862    -0.0005 H          1 ****  0
   35 H5         4.6993    -3.0859    -0.0008 H          1 ****  0
   36 H6         0.3238    -5.4646    -0.0011 H          1 ****  0
   37 H7         2.4746     2.4063     0.0160 H          1 ****  0
   38 H8         3.6577     1.9582    -1.6325 H          1 ****  0
   39 H9         2.5952    -0.8286    -1.4832 H          1 ****  0
   40 H10        4.6390     1.2689    -2.4349 H          1 ****  0
   41 H11        2.8526     1.4155    -2.5279 H          1 ****  0
   42 H12        3.7041     0.1780    -3.5148 H          1 ****  0
   43 H13        4.5117    -2.0844    -0.6685 H          1 ****  0
   44 H14        5.6331    -0.8620    -1.3335 H          1 ****  0
   45 H15        4.6469    -1.8761    -2.4592 H          1 ****  0
   46 H16        4.9426     1.9932    -0.7035 H          1 ****  0
   47 H17        4.7360     1.9256     1.0651 H          1 ****  0
   48 H18        6.0924    -0.0349    -0.5597 H          1 ****  0
   49 H19       -4.7462     2.0628     0.9234 H          1 ****  0
   50 H20       -4.7694     2.0561    -0.8692 H          1 ****  0
   51 H21       -4.6945     3.6199     0.0204 H          1 ****  0
   52 H22       -1.1580     3.1835     1.1927 H          1 ****  0
   53 H23       -2.6062     2.7188     2.1465 H          1 ****  0
   54 H24       -2.5940     4.2627     1.2275 H          1 ****  0
@<TRIPOS>BOND
    1     1     6 ar
    2     1     7 ar
    3     2     3 1
    4     2    29 1
    5     2    30 1
    6     2    31 1
    7     3     4 ar
    8     3    10 ar
    9     4     5 ar
   10     4     8 ar
   11     5     6 ar
   12     6    22 1
   13     7     8 ar
   14     7    11 1
   15     8     9 ar
   16     9    10 ar
   17    10    32 1
   18    11    12 1
   19    11    33 1
   20    12    13 ar
   21    12    18 ar
   22    13    14 ar
   23    13    34 1
   24    14    15 ar
   25    14    35 1
   26    15    16 ar
   27    15    19 1
   28    16    17 1
   29    16    18 ar
   30    18    36 1
   31    19    20 ar
   32    19    21 ar
   33    22    37 1
   34    23    22 1
   35    23    24 1
   36    23    27 1
   37    23    38 1
   38    24    25 1
   39    24    26 1
   40    24    39 1
   41    25    40 1
   42    25    41 1
   43    25    42 1
   44    26    43 1
   45    26    44 1
   46    26    45 1
   47    27    28 1
   48    27    46 1
   49    27    47 1
   50    28    48 1
   51    29    49 1
   52    29    50 1
   53    29    51 1
   54    30    52 1
   55    30    53 1
   56    30    54 1
@<TRIPOS>SUBSTRUCTURE
1   ****   1
@<TRIPOS>MOLECULE
1v48
34  35  1  0  0
SMALL
FORMAL_CHARGES
@<TRIPOS>ATOM
    1 N1         0.2362    -2.6367    -0.0004 N.ar       1 ****  0
    2 C1         1.5599    -2.8133    -0.0004 C.ar       1 ****  0
    3 N2         2.1614    -1.6154    -0.0003 N.ar       1 ****  0
    4 C2         1.1946    -0.7082    -0.0002 C.ar       1 ****  0
    5 C3         1.2602     0.7061    -0.0001 C.2        1 ****  0
    6 O1         2.3354     1.3159    -0.0000 O.2        1 ****  0
    7 N3         0.0253     1.3760     0.0000 N.am       1 ****  0
    8 C4        -1.2126     0.6230    -0.0001 C.2        1 ****  0
    9 N4        -2.4540     1.3294    -0.0000 N.3        1 ****  0
   10 N5        -1.2225    -0.6624    -0.0002 N.2        1 ****  0
   11 C5        -0.0147    -1.3426    -0.0003 C.ar       1 ****  0
   12 C6        -0.7487    -3.6813    -0.0007 C.3        1 ****  0
   13 C7        -0.0750    -5.0682    -0.0785 C.3        1 ****  0
   14 C8        -1.1625    -6.1578    -0.0663 C.3        1 ****  0
   15 C9        -0.5122    -7.5509    -0.1445 C.3        1 ****  0
   16 C10       -1.6185    -8.6211    -0.1200 C.3        1 ****  0
   17 F1        -2.4593    -8.4356    -1.1974 F          1 ****  0
   18 F2        -2.3392    -8.5073     1.0503 F          1 ****  0
   19 P1        -0.9398   -10.1316    -0.2045 P.3        1 ****  0
   20 O2        -1.9386   -11.0842    -0.1807 O.co2      1 ****  0
   21 O3        -0.0159   -10.3377     0.9800 O.co2      1 ****  -1
   22 O4        -0.1495   -10.2594    -1.4922 O.co2      1 ****  -1
   23 H1         2.0741    -3.7857    -0.0005 H          1 ****  0
   24 H2        -0.0001     2.4057     0.0001 H          1 ****  0
   25 H3        -2.4732     2.3592     0.0001 H          1 ****  0
   26 H4        -3.3383     0.8013    -0.0001 H          1 ****  0
   27 H5        -1.4156    -3.5527    -0.8660 H          1 ****  0
   28 H6        -1.3451    -3.6184     0.9214 H          1 ****  0
   29 H7         0.5901    -5.2040     0.7871 H          1 ****  0
   30 H8         0.5082    -5.1421    -1.0082 H          1 ****  0
   31 H9        -1.8307    -6.0184    -0.9289 H          1 ****  0
   32 H10       -1.7477    -6.0799     0.8619 H          1 ****  0
   33 H11        0.1568    -7.6948     0.7167 H          1 ****  0
   34 H12        0.0618    -7.6373    -1.0788 H          1 ****  0
@<TRIPOS>BOND
    1     1     2 ar
    2     1    11 ar
    3     1    12 1
    4     2     3 ar
    5     2    23 1
    6     3     4 ar
    7     4     5 1
    8     4    11 ar
    9     5     6 2
   10     5     7 am
   11     7     8 1
   12     7    24 1
   13     8     9 1
   14     8    10 2
   15     9    25 1
   16     9    26 1
   17    10    11 1
   18    12    13 1
   19    12    27 1
   20    12    28 1
   21    13    14 1
   22    13    29 1
   23    13    30 1
   24    14    15 1
   25    14    31 1
   26    14    32 1
   27    15    16 1
   28    15    33 1
   29    15    34 1
   30    16    17 1
   31    16    18 1
   32    16    19 1
   33    19    20 ar
   34    19    21 ar
   35    19    22 ar
@<TRIPOS>SUBSTRUCTURE
1   ****   1
@<TRIPOS>MOLECULE
1v4s
35  37  1  0  0
SMALL
FORMAL_CHARGES
@<TRIPOS>ATOM
    1 S1         5.1886     2.9161     0.0004 S.3        1 ****  0
    2 C1         5.8946     4.4375     0.0004 C.ar       1 ****  0
    3 C2         4.8946     5.4087     0.0002 C.ar       1 ****  0
    4 N1         3.6600     4.9006     0.0001 N.ar       1 ****  0
    5 C3         3.6596     3.5766     0.0001 C.ar       1 ****  0
    6 N2         2.4744     2.8105     0.0001 N.am       1 ****  0
    7 C4         2.4844     1.4023     0.0000 C.2        1 ****  0
    8 O1         3.5478     0.7738     0.0000 O.2        1 ****  0
    9 C5         1.2181    -0.7189    -0.0001 C.ar       1 ****  0
   10 C6         1.2182     0.6708    -0.0000 C.ar       1 ****  0
   11 C7         0.0151     1.3659    -0.0000 C.ar       1 ****  0
   12 C8        -1.1879     0.6707    -0.0001 C.ar       1 ****  0
   13 C9        -1.1886    -0.7190    -0.0002 C.ar       1 ****  0
   14 F1        -2.3487    -1.3872    -0.0003 F          1 ****  0
   15 C10        0.0147    -1.4143    -0.0002 C.ar       1 ****  0
   16 S2        -2.7278     1.5618    -0.0001 S.3        1 ****  0
   17 N3        -3.5168     4.1844     0.0015 N.ar       1 ****  0
   18 C11       -2.5161     3.3339     0.0010 C.ar       1 ****  0
   19 N4        -1.3616     3.9678     0.0015 N.ar       1 ****  0
   20 C12       -1.6409     5.2694     0.0023 C.ar       1 ****  0
   21 C13       -3.0261     5.4137     0.0023 C.ar       1 ****  0
   22 C14       -4.9060     3.8470     0.0012 C.3        1 ****  0
   23 N5         2.4555    -1.4322    -0.0001 N.pl3      1 ****  0
   24 H1         6.9763     4.6375     0.0005 H          1 ****  0
   25 H2         5.1025     6.4888     0.0002 H          1 ****  0
   26 H3         1.5680     3.2998     0.0000 H          1 ****  0
   27 H4         0.0151     2.4659     0.0000 H          1 ****  0
   28 H5         0.0148    -2.5143    -0.0003 H          1 ****  0
   29 H6        -0.9060     6.0879     0.0029 H          1 ****  0
   30 H7        -3.5951     6.3551     0.0029 H          1 ****  0
   31 H8        -4.9949     3.1902     0.8792 H          1 ****  0
   32 H9        -4.9948     3.1913    -0.8775 H          1 ****  0
   33 H10       -5.6156     4.6875     0.0017 H          1 ****  0
   34 H11        3.3475    -0.9171    -0.0000 H          1 ****  0
   35 H12        2.4559    -2.4622    -0.0001 H          1 ****  0
@<TRIPOS>BOND
    1     1     2 ar
    2     1     5 ar
    3     2     3 ar
    4     2    24 1
    5     3     4 ar
    6     3    25 1
    7     4     5 ar
    8     5     6 1
    9     6     7 am
   10     6    26 1
   11     7     8 2
   12     7    10 1
   13     9    10 ar
   14     9    15 ar
   15     9    23 1
   16    10    11 ar
   17    11    12 ar
   18    11    27 1
   19    12    13 ar
   20    12    16 1
   21    13    14 1
   22    13    15 ar
   23    15    28 1
   24    16    18 1
   25    17    18 ar
   26    17    21 ar
   27    17    22 1
   28    18    19 ar
   29    19    20 ar
   30    20    21 ar
   31    20    29 1
   32    21    30 1
   33    22    31 1
   34    22    32 1
   35    22    33 1
   36    23    34 1
   37    23    35 1
@<TRIPOS>SUBSTRUCTURE
1   ****   1
@<TRIPOS>MOLECULE
1vcj
52  53  1  0  0
SMALL
FORMAL_CHARGES
@<TRIPOS>ATOM
    1 C1         1.1622    -0.6109     0.0646 C.ar       1 ****  0
    2 C2         1.1321     0.7804     0.0183 C.ar       1 ****  0
    3 C3        -0.1411     1.3990    -0.0229 C.ar       1 ****  0
    4 C4        -1.2854     0.6136     0.0188 C.ar       1 ****  0
    5 C5        -1.2228    -0.7694     0.0545 C.ar       1 ****  0
    6 C6         0.0127    -1.3893     0.0740 C.ar       1 ****  0
    7 C7        -2.4532    -1.5512     0.0590 C.2        1 ****  0.0000
    8 O1        -3.5466    -0.9750     0.0356 O.co2      1 ****  -0.50
    9 O2        -2.3986    -2.9069     0.0600 O.co2      1 ****  -0.50
   10 N1        -0.3767     2.8249    -0.1095 N.pl3      1 ****  0
   11 C8        -1.7305     3.3973    -0.1885 C.3        1 ****  0
   12 C9        -1.5955     4.8791     0.2466 C.3        1 ****  0
   13 C10       -2.3411     3.3029    -1.6139 C.3        1 ****  0
   14 C11       -2.9700     5.5645     0.3141 C.3        1 ****  0
   15 C12       -1.4914     4.0678    -2.6450 C.3        1 ****  0
   16 N2         2.4935     1.4459     0.0546 N.am       1 ****  0
   17 C13        2.8323     2.8701     0.1499 C.3        1 ****  0
   18 C14        4.2914     2.8415     0.6821 C.3        1 ****  0
   19 C15        4.8992     1.5665     0.0633 C.3        1 ****  0
   20 C16        3.6882     0.7068    -0.0098 C.2        1 ****  0
   21 O3         3.7608    -0.5170    -0.1645 O.2        1 ****  0
   22 C17        2.9313     3.4415    -1.3070 C.3        1 ****  0
   23 O4         1.7959     3.1524    -2.1218 O.3        1 ****  0
   24 C18        2.0053     3.6680     1.2173 C.3        1 ****  0
   25 N3         1.9856     5.1135     0.9530 N.4        1 ****  1
   26 H1         2.1127    -1.1014     0.0944 H          1 ****  0
   27 H2        -2.2431     1.0907     0.0236 H          1 ****  0
   28 H3         0.0822    -2.4568     0.0959 H          1 ****  0
   29 H4         0.3479     3.3873    -0.3917 H          1 ****  0
   30 H5        -2.3844     2.8771     0.5239 H          1 ****  0
   31 H6        -0.9719     5.4027    -0.4574 H          1 ****  0
   32 H7        -1.1265     4.9250     1.2176 H          1 ****  0
   33 H8        -3.3388     3.7118    -1.6028 H          1 ****  0
   34 H9        -2.4061     2.2641    -1.9065 H          1 ****  0
   35 H10       -3.5835     5.0347     1.0175 H          1 ****  0
   36 H11       -3.4279     5.5116    -0.6551 H          1 ****  0
   37 H12       -2.8612     6.5748     0.6124 H          1 ****  0
   38 H13       -0.5012     3.6516    -2.6448 H          1 ****  0
   39 H14       -1.4336     5.0965    -2.3411 H          1 ****  0
   40 H15       -1.9220     3.9920    -3.6057 H          1 ****  0
   41 H16        4.8129     3.6875     0.3395 H          1 ****  0
   42 H17        4.2883     2.7623     1.7275 H          1 ****  0
   43 H18        5.5899     1.1534     0.7112 H          1 ****  0
   44 H19        5.2510     1.7690    -0.8901 H          1 ****  0
   45 H20        3.8205     3.0394    -1.7889 H          1 ****  0
   46 H21        3.0632     4.5236    -1.2582 H          1 ****  0
   47 H22        1.0982     3.8020    -1.9563 H          1 ****  0
   48 H23        2.4273     3.4942     2.1992 H          1 ****  0
   49 H24        0.9853     3.2962     1.2300 H          1 ****  0
   50 H25        1.5538     5.2881     0.0320 H          1 ****  0
   51 H26        2.9385     5.4894     0.9671 H          1 ****  0
   52 H27        1.4187     5.5783     1.6777 H          1 ****  0
@<TRIPOS>BOND
    1     1     2 ar
    2     1     6 ar
    3     1    26 1
    4     2     3 ar
    5     2    16 1
    6     3     4 ar
    7     3    10 1
    8     4     5 ar
    9     4    27 1
   10     5     6 ar
   11     5     7 1
   12     6    28 1
   13     7     8 ar
   14     7     9 ar
   15    10    11 1
   16    10    29 1
   17    11    12 1
   18    11    13 1
   19    11    30 1
   20    12    14 1
   21    12    31 1
   22    12    32 1
   23    13    15 1
   24    13    33 1
   25    13    34 1
   26    14    35 1
   27    14    36 1
   28    14    37 1
   29    15    38 1
   30    15    39 1
   31    15    40 1
   32    16    17 1
   33    16    20 am
   34    17    18 1
   35    17    22 1
   36    17    24 1
   37    18    19 1
   38    18    41 1
   39    18    42 1
   40    19    20 1
   41    19    43 1
   42    19    44 1
   43    20    21 2
   44    22    23 1
   45    22    45 1
   46    22    46 1
   47    23    47 1
   48    24    25 1
   49    24    48 1
   50    24    49 1
   51    25    50 1
   52    25    51 1
   53    25    52 1
@<TRIPOS>SUBSTRUCTURE
1   ****   1
@<TRIPOS>MOLECULE
1w1p
21  22  1  0  0
SMALL
FORMAL_CHARGES
@<TRIPOS>ATOM
    1 O1         2.2563    -1.2525     0.3140 O.2        1 ****  0
    2 C1         1.1957    -0.6653     0.0709 C.2        1 ****  0
    3 C2         1.2023     0.8036    -0.1671 C.3        1 ****  0
    4 C3         2.1435     1.5544     0.7758 C.3        1 ****  0
    5 C4         1.5832     2.9811     0.6347 C.3        1 ****  0
    6 C5         0.0503     2.7302     0.6724 C.3        1 ****  0
    7 N1        -0.0391     1.3997     0.1313 N.am       1 ****  0
    8 C6        -1.2463     0.7236     0.0046 C.2        1 ****  0
    9 O2        -2.3107     1.3278     0.1785 O.2        1 ****  0
   10 C7        -1.2693    -0.7536    -0.3115 C.3        1 ****  0
   11 N2         0.0047    -1.3932    -0.0460 N.am       1 ****  0
   12 H1         1.4915     0.8820    -1.2256 H          1 ****  0
   13 H2         3.1789     1.5089     0.4072 H          1 ****  0
   14 H3         2.0249     1.1940     1.8083 H          1 ****  0
   15 H4         1.8901     3.5998     1.4909 H          1 ****  0
   16 H5         1.8753     3.4146    -0.3332 H          1 ****  0
   17 H6        -0.4705     3.4478     0.0214 H          1 ****  0
   18 H7        -0.3138     2.7505     1.7102 H          1 ****  0
   19 H8        -2.0473    -1.2395     0.2957 H          1 ****  0
   20 H9        -1.5247    -0.8917    -1.3725 H          1 ****  0
   21 H10        0.0349    -2.4173     0.0603 H          1 ****  0
@<TRIPOS>BOND
    1     1     2 2
    2     2     3 1
    3     2    11 am
    4     3     4 1
    5     3     7 1
    6     3    12 1
    7     4     5 1
    8     4    13 1
    9     4    14 1
   10     5     6 1
   11     5    15 1
   12     5    16 1
   13     6     7 1
   14     6    17 1
   15     6    18 1
   16     7     8 am
   17     8     9 2
   18     8    10 1
   19    10    11 1
   20    10    19 1
   21    10    20 1
   22    11    21 1
@<TRIPOS>SUBSTRUCTURE
1   ****   1
@<TRIPOS>MOLECULE
1w2g
31  32  1  0  0
SMALL
FORMAL_CHARGES
@<TRIPOS>ATOM
    1 O1         1.0344    -3.4436     3.0027 O.3        1 ****  0
    2 C1         2.3682    -3.8582     2.6981 C.3        1 ****  0
    3 C2         2.9998    -2.8630     1.7104 C.3        1 ****  0
    4 O2         2.2542    -2.7656     0.4721 O.3        1 ****  0
    5 C3         2.4221    -1.6251     1.3899 C.3        1 ****  0
    6 O3         1.7446    -1.0359     2.6358 O.3        1 ****  0
    7 C4         3.4552    -0.7717     0.9710 C.3        1 ****  0
    8 C5         2.4356    -1.4003     0.0003 C.3        1 ****  0
    9 N1         1.1975    -0.6770    -0.0001 N.am       1 ****  0
   10 C6         1.2106     0.7223    -0.0000 C.2        1 ****  0
   11 O4         2.2881     1.3294     0.0000 O.2        1 ****  0
   12 N2         0.0115     1.4313    -0.0000 N.am       1 ****  0
   13 C7        -1.1903     0.7352    -0.0001 C.2        1 ****  0
   14 O5        -2.2649     1.3472    -0.0001 O.2        1 ****  0
   15 C8        -1.1767    -0.7224    -0.0002 C.2        1 ****  0
   16 C9        -2.4666    -1.4842    -0.0004 C.3        1 ****  0
   17 C10       -0.0168    -1.3770    -0.0002 C.2        1 ****  0
   18 H1         0.4971    -3.4188     2.1716 H          1 ****  0
   19 H2         2.9642    -3.8852     3.6222 H          1 ****  0
   20 H3         2.3476    -4.8604     2.2451 H          1 ****  0
   21 H4         4.0095    -3.2628     1.5357 H          1 ****  0
   22 H5         1.7810    -1.8017     0.5136 H          1 ****  0
   23 H6         1.3847    -1.6452     3.3281 H          1 ****  0
   24 H7         3.2995     0.3150     1.0406 H          1 ****  0
   25 H8         4.4801    -1.0492     0.6838 H          1 ****  0
   26 H9         2.7920    -1.3724    -1.0399 H          1 ****  0
   27 H10        0.0161     2.4613     0.0000 H          1 ****  0
   28 H11       -3.0100    -1.1193    -0.8845 H          1 ****  0
   29 H12       -3.0101    -1.1194     0.8838 H          1 ****  0
   30 H13       -2.3446    -2.5774    -0.0005 H          1 ****  0
   31 H14       -0.0117    -2.4770    -0.0003 H          1 ****  0
@<TRIPOS>BOND
    1     1     2 1
    2     1    18 1
    3     2    19 1
    4     2    20 1
    5     3     2 1
    6     3     4 1
    7     3     5 1
    8     3    21 1
    9     5     6 1
   10     5     7 1
   11     5    22 1
   12     6    23 1
   13     7     8 1
   14     7    24 1
   15     7    25 1
   16     8     4 1
   17     8     9 1
   18     8    26 1
   19     9    10 am
   20     9    17 1
   21    10    11 2
   22    10    12 am
   23    12    13 am
   24    12    27 1
   25    13    14 2
   26    13    15 1
   27    15    16 1
   28    15    17 2
   29    16    28 1
   30    16    29 1
   31    16    30 1
   32    17    31 1
@<TRIPOS>SUBSTRUCTURE
1   ****   1
@<TRIPOS>MOLECULE
1x8x
24  24  1  0  0
SMALL
FORMAL_CHARGES
@<TRIPOS>ATOM
    1 N1         3.7159     0.2391    -1.3620 N.4        1 ****  1
    2 C1         3.7134    -0.4867    -0.0799 C.3        1 ****  0
    3 C2         4.9786    -1.2872     0.0211 C.2        1 ****  0.0000
    4 O1         6.0750    -0.7206    -0.0472 O.co2      1 ****  -0.50
    5 C3         2.4988    -1.4430    -0.0021 C.3        1 ****  0
    6 C4         1.1920    -0.6884    -0.0001 C.ar       1 ****  0
    7 C5         1.1928     0.7015     0.0001 C.ar       1 ****  0
    8 C6        -0.0114    -1.3835    -0.0003 C.ar       1 ****  0
    9 C7        -0.0106     1.3965     0.0001 C.ar       1 ****  0
   10 C8        -1.2147    -0.6886    -0.0003 C.ar       1 ****  0
   11 C9        -1.2141     0.7012    -0.0001 C.ar       1 ****  0
   12 O2        -2.4168     1.3951    -0.0001 O.3        1 ****  0
   13 O3         4.9189    -2.6357     0.1721 O.co2      1 ****  -0.50
   14 H1         3.7601    -0.4303    -2.1435 H          1 ****  0
   15 H2         4.5261     0.8736    -1.4039 H          1 ****  0
   16 H3         2.8500     0.7915    -1.4390 H          1 ****  0
   17 H4         3.6475     0.2364     0.7463 H          1 ****  0
   18 H5         2.5196    -2.1244    -0.8655 H          1 ****  0
   19 H6         2.5689    -2.0435     0.9168 H          1 ****  0
   20 H7         2.1457     1.2512     0.0003 H          1 ****  0
   21 H8        -0.0113    -2.4835    -0.0004 H          1 ****  0
   22 H9        -0.0107     2.4965     0.0003 H          1 ****  0
   23 H10       -2.1675    -1.2383    -0.0004 H          1 ****  0
   24 H11       -2.3730     1.9819    -0.7962 H          1 ****  0
@<TRIPOS>BOND
    1     1    14 1
    2     1    15 1
    3     1    16 1
    4     2     1 1
    5     2     3 1
    6     2     5 1
    7     2    17 1
    8     3     4 ar
    9     3    13 ar
   10     5     6 1
   11     5    18 1
   12     5    19 1
   13     6     7 ar
   14     6     8 ar
   15     7     9 ar
   16     7    20 1
   17     8    10 ar
   18     8    21 1
   19     9    11 ar
   20     9    22 1
   21    10    11 ar
   22    10    23 1
   23    11    12 1
   24    12    24 1
@<TRIPOS>SUBSTRUCTURE
1   ****   1
@<TRIPOS>MOLECULE
1xm6
38  39  1  0  0
SMALL
FORMAL_CHARGES
@<TRIPOS>ATOM
    1 O1         4.8829    -2.3440    -2.2252 O.2        1 ****  0
    2 C1         4.1841    -1.9296    -1.2943 C.2        1 ****  0
    3 O2         2.7845    -1.9259    -1.3308 O.3        1 ****  0
    4 N1         4.7004    -1.2548    -0.2049 N.am       1 ****  0
    5 C2         3.6436    -0.5160     0.3819 C.3        1 ****  0
    6 C3         2.4825    -1.4462     0.0002 C.3        1 ****  0
    7 C4         2.3947    -2.6262     0.9862 C.3        1 ****  0
    8 C5         1.1801    -0.6961    -0.0001 C.ar       1 ****  0
    9 C6         1.1792     0.6938     0.0001 C.ar       1 ****  0
   10 C7        -0.0246     1.3879     0.0001 C.ar       1 ****  0
   11 C8        -1.2276     0.6917    -0.0001 C.ar       1 ****  0
   12 O3        -2.4404     1.3912    -0.0001 O.3        1 ****  0
   13 C9        -2.2186     2.8088     0.0001 C.3        1 ****  0
   14 C10       -1.2266    -0.6979    -0.0003 C.ar       1 ****  0
   15 C11       -0.0227    -1.3922    -0.0002 C.ar       1 ****  0
   16 O4        -2.4355    -1.3972    -0.0004 O.3        1 ****  0
   17 C12       -2.2077    -2.8119    -0.0005 C.3        1 ****  0
   18 C13       -3.5621    -3.5441    -0.0007 C.3        1 ****  0
   19 C14       -3.3265    -5.0653    -0.0008 C.3        1 ****  0
   20 H1         5.6769    -1.2837     0.1215 H          1 ****  0
   21 H2         3.7553    -0.4678     1.4751 H          1 ****  0
   22 H3         3.5280     0.4637    -0.1047 H          1 ****  0
   23 H4         3.3568    -3.1592     0.9983 H          1 ****  0
   24 H5         1.6026    -3.3145     0.6562 H          1 ****  0
   25 H6         2.1649    -2.2534     1.9953 H          1 ****  0
   26 H7         2.1315     1.2443     0.0002 H          1 ****  0
   27 H8        -0.0255     2.4879     0.0002 H          1 ****  0
   28 H9        -1.6400     3.0778    -0.8960 H          1 ****  0
   29 H10       -1.6401     3.0776     0.8962 H          1 ****  0
   30 H11       -3.1797     3.3439     0.0000 H          1 ****  0
   31 H12       -0.0218    -2.4922    -0.0004 H          1 ****  0
   32 H13       -1.6392    -3.0925    -0.8995 H          1 ****  0
   33 H14       -1.6390    -3.0936     0.8979 H          1 ****  0
   34 H15       -4.1313    -3.2622     0.8974 H          1 ****  0
   35 H16       -4.1321    -3.2624    -0.8983 H          1 ****  0
   36 H17       -2.7574    -5.3484     0.8970 H          1 ****  0
   37 H18       -2.7573    -5.3482    -0.8986 H          1 ****  0
   38 H19       -4.2944    -5.5880    -0.0009 H          1 ****  0
@<TRIPOS>BOND
    1     1     2 2
    2     2     3 1
    3     2     4 am
    4     3     6 1
    5     4     5 1
    6     4    20 1
    7     5     6 1
    8     5    21 1
    9     5    22 1
   10     6     7 1
   11     6     8 1
   12     7    23 1
   13     7    24 1
   14     7    25 1
   15     8     9 ar
   16     8    15 ar
   17     9    10 ar
   18     9    26 1
   19    10    11 ar
   20    10    27 1
   21    11    12 1
   22    11    14 ar
   23    12    13 1
   24    13    28 1
   25    13    29 1
   26    13    30 1
   27    14    15 ar
   28    14    16 1
   29    15    31 1
   30    16    17 1
   31    17    18 1
   32    17    32 1
   33    17    33 1
   34    18    19 1
   35    18    34 1
   36    18    35 1
   37    19    36 1
   38    19    37 1
   39    19    38 1
@<TRIPOS>SUBSTRUCTURE
1   ****   1
@<TRIPOS>MOLECULE
1xoq
40  42  1  0  0
SMALL
FORMAL_CHARGES
@<TRIPOS>ATOM
    1 O1         2.2531    -2.6391    -0.0047 O.2        1 ****  0
    2 C1        -4.6113    -2.9765     0.7785 C.3        1 ****  0
    3 C2        -4.6089    -2.9748    -0.7779 C.3        1 ****  0
    4 C3        -3.4388    -3.5777     0.0014 C.3        1 ****  0
    5 C4         2.3787    -1.4231    -0.0053 C.2        1 ****  0
    6 C5         1.1469    -0.6423    -0.0056 C.ar       1 ****  0
    7 C6         1.1544     0.7468    -0.0062 C.ar       1 ****  0
    8 C7        -0.0497     1.4418    -0.0041 C.ar       1 ****  0
    9 C8        -1.2624     0.7572    -0.0014 C.ar       1 ****  0
   10 O2        -2.4961     1.4402     0.0092 O.3        1 ****  0
   11 C9        -2.3493     2.8755    -0.0139 C.3        1 ****  0
   12 F1        -3.5932     3.4511     0.1345 F          1 ****  0
   13 F2        -1.8148     3.2865    -1.2244 F          1 ****  0
   14 C10       -1.2613    -0.6327    -0.0003 C.ar       1 ****  0
   15 O3        -2.4565    -1.3455     0.0049 O.3        1 ****  0
   16 C11       -2.1489    -2.7480     0.0041 C.3        1 ****  0
   17 C12       -0.0596    -1.3251    -0.0036 C.ar       1 ****  0
   18 N1         3.6459    -0.7654    -0.0028 N.am       1 ****  0
   19 C13        4.9856    -1.3858    -0.0011 C.ar       1 ****  0
   20 C14        5.3059    -2.7540    -0.0006 C.ar       1 ****  0
   21 Cl1        4.1811    -4.0505    -0.0009 Cl         1 ****  0
   22 C15        6.6424    -3.1375     0.0007 C.ar       1 ****  0
   23 N2         7.6274    -2.2526     0.0014 N.ar       1 ****  0
   24 C16        7.3669    -0.9554     0.0013 C.ar       1 ****  0
   25 C17        6.0577    -0.4939     0.0000 C.ar       1 ****  0
   26 Cl2        5.7888     1.2100    -0.0003 Cl         1 ****  0
   27 H1        -5.1560    -3.6786     1.0499 H          1 ****  0
   28 H2        -4.3575    -2.1229     1.0534 H          1 ****  0
   29 H3        -4.3545    -2.1235    -1.0496 H          1 ****  0
   30 H4        -5.1549    -3.6782    -1.0532 H          1 ****  0
   31 H5        -3.3995    -4.6776    -0.0001 H          1 ****  0
   32 H6         2.0824     1.2793    -0.0082 H          1 ****  0
   33 H7        -0.0446     2.5118    -0.0046 H          1 ****  0
   34 H8        -1.7034     3.2020     0.8152 H          1 ****  0
   35 H9        -1.5722    -2.9866     0.8805 H          1 ****  0
   36 H10       -1.5702    -2.9840    -0.8681 H          1 ****  0
   37 H11       -0.0637    -2.3951    -0.0045 H          1 ****  0
   38 H12        3.6198     0.2196    -0.0023 H          1 ****  0
   39 H13        6.8824    -4.1803     0.0010 H          1 ****  0
   40 H14        8.1748    -0.2539     0.0022 H          1 ****  0
@<TRIPOS>BOND
    1     1     5 2
    2     2     3 1
    3     2     4 1
    4     2    27 1
    5     2    28 1
    6     3     4 1
    7     3    29 1
    8     3    30 1
    9     4    16 1
   10     4    31 1
   11     5     6 1
   12     5    18 am
   13     6     7 ar
   14     6    17 ar
   15     7     8 ar
   16     7    32 1
   17     8     9 ar
   18     8    33 1
   19     9    10 1
   20     9    14 ar
   21    10    11 1
   22    11    12 1
   23    11    13 1
   24    11    34 1
   25    14    15 1
   26    14    17 ar
   27    15    16 1
   28    16    35 1
   29    16    36 1
   30    17    37 1
   31    18    19 1
   32    18    38 1
   33    19    20 ar
   34    19    25 ar
   35    20    21 1
   36    20    22 ar
   37    22    23 ar
   38    22    39 1
   39    23    24 ar
   40    24    25 ar
   41    24    40 1
   42    25    26 1
@<TRIPOS>SUBSTRUCTURE
1   ****   1
@<TRIPOS>MOLECULE
1xoz
48  53  1  0  0
SMALL
FORMAL_CHARGES
@<TRIPOS>ATOM
    1 C1         1.1804    -0.4902     0.1092 C.ar       1 ****  0
    2 C2         1.0926     0.9049     0.1631 C.ar       1 ****  0
    3 C3        -0.1444     1.5487     0.1570 C.ar       1 ****  0
    4 C4        -1.2610     0.7352     0.0925 C.ar       1 ****  0
    5 C5        -2.6022     1.0491     0.0451 C.ar       1 ****  0
    6 C6        -3.2737    -0.1516    -0.0415 C.ar       1 ****  0
    7 N1        -2.4070    -1.1704    -0.0305 N.ar       1 ****  0
    8 C7        -1.1861    -0.6376     0.0395 C.ar       1 ****  0
    9 C8         0.0380    -1.2876     0.0484 C.ar       1 ****  0
   10 C9        -4.7548    -0.2540    -0.1511 C.3        1 ****  0
   11 N2        -5.4017     0.9609     0.4061 N.am       1 ****  0
   12 C10       -6.7397     0.9230     0.8527 C.2        1 ****  0
   13 O1        -7.5192     0.0460     0.4629 O.2        1 ****  0
   14 C11       -7.2467     1.9832     1.8093 C.3        1 ****  0
   15 N3        -6.1577     2.6122     2.5429 N.am       1 ****  0
   16 C12       -4.8844     2.7197     1.9752 C.2        1 ****  0
   17 O2        -3.9734     3.3018     2.5748 O.2        1 ****  0
   18 C13       -4.6863     2.2198     0.5992 C.3        1 ****  0
   19 C14       -3.2548     2.3561     0.0087 C.3        1 ****  0
   20 C15       -6.4068     3.1563     3.8430 C.3        1 ****  0
   21 C16       -5.1672    -1.4911     0.6097 C.ar       1 ****  0
   22 C17       -4.2069    -2.4147     1.0226 C.ar       1 ****  0
   23 C18       -4.5763    -3.5603     1.7226 C.ar       1 ****  0
   24 C19       -5.9227    -3.7518     1.9944 C.ar       1 ****  0
   25 O3        -6.4608    -4.8100     2.6647 O.3        1 ****  0
   26 C20       -7.9166    -4.4978     2.6615 C.3        1 ****  0
   27 O4        -8.1313    -3.2078     1.9492 O.3        1 ****  0
   28 C21       -6.8670    -2.8459     1.5898 C.ar       1 ****  0
   29 C22       -6.5156    -1.7000     0.8917 C.ar       1 ****  0
   30 H1         2.1711    -0.9682     0.1149 H          1 ****  0
   31 H2         2.0140     1.5036     0.2111 H          1 ****  0
   32 H3        -0.2276     2.6447     0.2010 H          1 ****  0
   33 H4        -2.6379    -2.1735    -0.0687 H          1 ****  0
   34 H5         0.1054    -2.3848     0.0093 H          1 ****  0
   35 H6        -5.0705    -0.3285    -1.2022 H          1 ****  0
   36 H7        -7.9432     1.5221     2.5251 H          1 ****  0
   37 H8        -7.7895     2.7529     1.2410 H          1 ****  0
   38 H9        -5.1712     2.9313    -0.0854 H          1 ****  0
   39 H10       -2.6764     3.0736     0.6093 H          1 ****  0
   40 H11       -3.3186     2.7084    -1.0313 H          1 ****  0
   41 H12       -6.8151     2.3203     4.4298 H          1 ****  0
   42 H13       -7.2233     3.8792     3.6992 H          1 ****  0
   43 H14       -5.5244     3.6100     4.3181 H          1 ****  0
   44 H15       -3.1462    -2.2362     0.7926 H          1 ****  0
   45 H16       -3.8227    -4.2916     2.0503 H          1 ****  0
   46 H17       -8.2778    -4.4104     3.6968 H          1 ****  0
   47 H18       -8.4639    -5.2992     2.1436 H          1 ****  0
   48 H19       -7.2796    -0.9769     0.5700 H          1 ****  0
@<TRIPOS>BOND
    1     1     2 ar
    2     1     9 ar
    3     1    30 1
    4     2     3 ar
    5     2    31 1
    6     3     4 ar
    7     3    32 1
    8     4     5 ar
    9     4     8 ar
   10     5     6 ar
   11     5    19 1
   12     6     7 ar
   13     6    10 1
   14     7     8 ar
   15     7    33 1
   16     8     9 ar
   17     9    34 1
   18    10    11 1
   19    10    21 1
   20    10    35 1
   21    11    12 am
   22    12    13 2
   23    12    14 1
   24    14    15 1
   25    14    36 1
   26    14    37 1
   27    15    16 am
   28    15    20 1
   29    16    17 2
   30    16    18 1
   31    18    11 1
   32    18    19 1
   33    18    38 1
   34    19    39 1
   35    19    40 1
   36    20    41 1
   37    20    42 1
   38    20    43 1
   39    21    22 ar
   40    21    29 ar
   41    22    23 ar
   42    22    44 1
   43    23    24 ar
   44    23    45 1
   45    24    25 1
   46    24    28 ar
   47    25    26 1
   48    26    27 1
   49    26    46 1
   50    26    47 1
   51    27    28 1
   52    28    29 ar
   53    29    48 1
@<TRIPOS>SUBSTRUCTURE
1   ****   1
@<TRIPOS>MOLECULE
1y6b
59  63  1  0  0
SMALL
FORMAL_CHARGES
@<TRIPOS>ATOM
    1 O1         2.7325    -2.4988     1.1866 O.2        1 ****  0
    2 S1         2.6908    -1.5552     0.0000 S.O2       1 ****  0
    3 O2         2.8096    -2.3614    -1.2790 O.2        1 ****  0
    4 N1         3.9888    -0.4577     0.0999 N.am       1 ****  0
    5 C1         5.3328    -0.9534     0.1610 C.3        1 ****  0
    6 C2         6.3174     0.2279     0.1773 C.3        1 ****  0
    7 C3         6.0099     1.4281    -0.6246 C.3        1 ****  0
    8 C4         5.9527     1.4557     0.9104 C.3        1 ****  0
    9 C5         1.1599    -0.6767    -0.0001 C.ar       1 ****  0
   10 C6         1.1565     0.7131     0.0001 C.ar       1 ****  0
   11 C7        -0.0488     1.4048     0.0001 C.ar       1 ****  0
   12 C8        -0.0414    -1.3753    -0.0002 C.ar       1 ****  0
   13 C9        -1.2466    -0.6836    -0.0003 C.ar       1 ****  0
   14 C10       -1.2502     0.7063    -0.0001 C.ar       1 ****  0
   15 O3        -2.4643     1.4035    -0.0001 O.3        1 ****  0
   16 C11       -2.2451     2.8215     0.0001 C.3        1 ****  0
   17 N2        -2.5126    -1.4219    -0.0004 N.pl3      1 ****  0
   18 C12       -2.4685    -2.8915    -0.0006 C.ar       1 ****  0
   19 O4        -1.4087    -3.6208    -0.0005 O.2        1 ****  0
   20 C13       -1.8164    -4.8439    -0.0007 C.ar       1 ****  0
   21 C14       -3.2024    -4.8809    -0.0008 C.ar       1 ****  0
   22 N3        -3.5799    -3.6098    -0.0007 N.ar       1 ****  0
   23 C15       -0.9449    -6.0187    -0.0007 C.ar       1 ****  0
   24 C16        0.4356    -5.8579    -0.0006 C.ar       1 ****  0
   25 C17        1.2645    -6.9733    -0.0006 C.ar       1 ****  0
   26 C18        0.7134    -8.2492    -0.0007 C.ar       1 ****  0
   27 C19       -0.6670    -8.4099    -0.0009 C.ar       1 ****  0
   28 C20       -1.4961    -7.2946    -0.0008 C.ar       1 ****  0
   29 C21        2.7208    -6.8041    -0.0005 C.ar       1 ****  0
   30 C22        3.2772    -5.5320    -0.0004 C.ar       1 ****  0
   31 N4         4.5970    -5.3710    -0.0003 N.ar       1 ****  1
   32 C23        5.4213    -6.4126    -0.0003 C.ar       1 ****  0
   33 C24        4.9258    -7.7120    -0.0004 C.ar       1 ****  0
   34 C25        3.5536    -7.9145    -0.0005 C.ar       1 ****  0
   35 H1         3.8095     0.5565     0.1163 H          1 ****  0
   36 H2         5.4621    -1.5502     1.0759 H          1 ****  0
   37 H3         5.5324    -1.5836    -0.7182 H          1 ****  0
   38 H4         7.1755    -0.4589     0.2222 H          1 ****  0
   39 H5         4.9994     1.3899    -1.0573 H          1 ****  0
   40 H6         6.9199     1.9226    -0.9954 H          1 ****  0
   41 H7         6.8327     1.9652     1.3298 H          1 ****  0
   42 H8         4.9127     1.4309     1.2680 H          1 ****  0
   43 H9         2.1077     1.2655     0.0002 H          1 ****  0
   44 H10       -0.0519     2.5048     0.0002 H          1 ****  0
   45 H11       -0.0383    -2.4753    -0.0004 H          1 ****  0
   46 H12       -1.6670     3.0916    -0.8960 H          1 ****  0
   47 H13       -1.6671     3.0914     0.8962 H          1 ****  0
   48 H14       -3.2071     3.3548     0.0001 H          1 ****  0
   49 H15       -3.4133    -0.9224    -0.0004 H          1 ****  0
   50 H16       -3.8484    -5.7713    -0.0009 H          1 ****  0
   51 H17        0.8719    -4.8481    -0.0005 H          1 ****  0
   52 H18        1.3698    -9.1318    -0.0008 H          1 ****  0
   53 H19       -1.1033    -9.4197    -0.0010 H          1 ****  0
   54 H20       -2.5888    -7.4216    -0.0009 H          1 ****  0
   55 H21        2.6203    -4.6497    -0.0003 H          1 ****  0
   56 H22        4.9886    -4.4183    -0.0002 H          1 ****  0
   57 H23        6.5085    -6.2455    -0.0002 H          1 ****  0
   58 H24        5.6145    -8.5697    -0.0005 H          1 ****  0
   59 H25        3.1350    -8.9318    -0.0006 H          1 ****  0
@<TRIPOS>BOND
    1     1     2 2
    2     2     3 2
    3     2     4 am
    4     2     9 1
    5     4     5 1
    6     4    35 1
    7     5     6 1
    8     5    36 1
    9     5    37 1
   10     6     7 1
   11     6     8 1
   12     6    38 1
   13     7     8 1
   14     7    39 1
   15     7    40 1
   16     8    41 1
   17     8    42 1
   18     9    10 ar
   19     9    12 ar
   20    10    11 ar
   21    10    43 1
   22    11    14 ar
   23    11    44 1
   24    12    13 ar
   25    12    45 1
   26    13    14 ar
   27    13    17 1
   28    14    15 1
   29    15    16 1
   30    16    46 1
   31    16    47 1
   32    16    48 1
   33    17    18 1
   34    17    49 1
   35    18    19 ar
   36    18    22 ar
   37    19    20 ar
   38    20    21 ar
   39    20    23 1
   40    21    22 ar
   41    21    50 1
   42    23    24 ar
   43    23    28 ar
   44    24    25 ar
   45    24    51 1
   46    25    26 ar
   47    25    29 1
   48    26    27 ar
   49    26    52 1
   50    27    28 ar
   51    27    53 1
   52    28    54 1
   53    29    30 ar
   54    29    34 ar
   55    30    31 ar
   56    30    55 1
   57    31    32 ar
   58    31    56 1
   59    32    33 ar
   60    32    57 1
   61    33    34 ar
   62    33    58 1
   63    34    59 1
@<TRIPOS>SUBSTRUCTURE
1   ****   1
@<TRIPOS>MOLECULE
1ygc
67  69  1  0  0
SMALL
FORMAL_CHARGES
@<TRIPOS>ATOM
    1 O1         1.5219    -1.6637     4.8233 O.3        1 ****  0
    2 C1         1.6414    -2.6581     3.8822 C.ar       1 ****  0
    3 C2         1.9663    -2.2748     2.5871 C.ar       1 ****  0
    4 C3         2.0648    -3.2147     1.5765 C.ar       1 ****  0
    5 N1         2.4141    -2.7954     0.2578 N.pl3      1 ****  0
    6 C4         2.5399    -1.3479    -0.0219 C.3        1 ****  0
    7 C5         3.2201    -1.1748    -1.3715 C.2        1 ****  0
    8 O2         3.4964    -2.1663    -2.0555 O.2        1 ****  0
    9 N2         3.5789     0.0959    -1.8190 N.am       1 ****  0
   10 S1         4.3165     0.3413    -3.3207 S.O2       1 ****  0
   11 O3         3.4967    -0.3118    -4.4166 O.2        1 ****  0
   12 O4         5.7116    -0.2531    -3.3084 O.2        1 ****  0
   13 C6         4.4100     2.0934    -3.5919 C.ar       1 ****  0
   14 C7         3.9652     2.9684    -2.6068 C.ar       1 ****  0
   15 C8         4.0326     4.3415    -2.8064 C.ar       1 ****  0
   16 C9         4.5464     4.8418    -3.9959 C.ar       1 ****  0
   17 C10        4.9907     3.9682    -4.9813 C.ar       1 ****  0
   18 N3         5.5173     4.4834    -6.2018 N.pl3      1 ****  0
   19 C11        4.9235     2.5943    -4.7812 C.ar       1 ****  0
   20 C12        1.1936    -0.6342    -0.0013 C.ar       1 ****  0
   21 C13        1.1382     0.7460     0.1687 C.ar       1 ****  0
   22 F1         2.2418     1.4620     0.3816 F          1 ****  0
   23 C14       -0.0775     1.4127     0.1218 C.ar       1 ****  0
   24 O5        -0.0916     2.8017     0.2383 O.3        1 ****  0
   25 C15       -1.4221     3.3041     0.1311 C.3        1 ****  0
   26 C16       -1.3719     4.8420     0.0586 C.3        1 ****  0
   27 C17       -1.2544     0.6940    -0.0243 C.ar       1 ****  0
   28 C18       -1.2115    -0.6909    -0.1364 C.ar       1 ****  0
   29 O6        -2.4001    -1.4139    -0.2127 O.3        1 ****  0
   30 C19       -3.5134    -0.5130    -0.1330 C.3        1 ****  0
   31 C20       -4.8251    -1.3124    -0.0466 C.3        1 ****  0
   32 C21        0.0119    -1.3532    -0.1506 C.ar       1 ****  0
   33 C22        1.8308    -4.5544     1.8575 C.ar       1 ****  0
   34 C23        1.5453    -4.9429     3.1602 C.ar       1 ****  0
   35 C24        1.4520    -4.0023     4.1875 C.ar       1 ****  0
   36 C25        1.1440    -4.4846     5.5850 C.2        1 ****  0
   37 N4         0.9280    -5.7203     5.8025 N.2        1 ****  1
   38 N5         1.0960    -3.5987     6.7246 N.3        1 ****  0
   39 H1         1.6801    -0.7872     4.3929 H          1 ****  0
   40 H2         2.1420    -1.2421     2.3689 H          1 ****  0
   41 H3         2.2864    -3.4688    -0.5112 H          1 ****  0
   42 H4         3.1736    -0.8700     0.7378 H          1 ****  0
   43 H5         3.4187     0.8578    -1.2613 H          1 ****  0
   44 H6         3.5693     2.5822    -1.6908 H          1 ****  0
   45 H7         3.6897     5.0117    -2.0460 H          1 ****  0
   46 H8         4.6000     5.8987    -4.1536 H          1 ****  0
   47 H9         5.5675     5.5005    -6.3515 H          1 ****  0
   48 H10        5.8461     3.8376    -6.9318 H          1 ****  0
   49 H11        5.2664     1.9242    -5.5416 H          1 ****  0
   50 H12       -1.9870     3.0067     0.9864 H          1 ****  0
   51 H13       -1.8793     2.9198    -0.7568 H          1 ****  0
   52 H14       -0.8087     5.1457    -0.7973 H          1 ****  0
   53 H15       -0.9166     5.2314     0.9435 H          1 ****  0
   54 H16       -2.3743     5.2278    -0.0225 H          1 ****  0
   55 H17       -2.1943     1.2048    -0.0506 H          1 ****  0
   56 H18       -3.5328     0.1091    -1.0041 H          1 ****  0
   57 H19       -3.4128     0.1029     0.7405 H          1 ****  0
   58 H20       -4.8057    -1.9335     0.8247 H          1 ****  0
   59 H21       -4.9247    -1.9264    -0.9175 H          1 ****  0
   60 H22       -5.6543    -0.6378     0.0128 H          1 ****  0
   61 H23        0.0439    -2.4153    -0.2765 H          1 ****  0
   62 H24        1.8700    -5.2831     1.0750 H          1 ****  0
   63 H25        1.3947    -5.9793     3.3796 H          1 ****  0
   64 H26        0.7301    -6.0504     6.7153 H          1 ****  0
   65 H27        0.9561    -6.3625     5.0433 H          1 ****  0
   66 H28        1.2758    -2.6076     6.6363 H          1 ****  0
   67 H29        0.8956    -3.9891     7.6537 H          1 ****  0
@<TRIPOS>BOND
    1     1     2 1
    2     1    39 1
    3     2     3 ar
    4     2    35 ar
    5     3     4 ar
    6     3    40 1
    7     4     5 1
    8     4    33 ar
    9     5    41 1
   10     6     5 1
   11     6     7 1
   12     6    20 1
   13     6    42 1
   14     7     8 2
   15     7     9 am
   16     9    10 am
   17     9    43 1
   18    10    11 2
   19    10    12 2
   20    10    13 1
   21    13    14 ar
   22    13    19 ar
   23    14    15 ar
   24    14    44 1
   25    15    16 ar
   26    15    45 1
   27    16    17 ar
   28    16    46 1
   29    17    18 1
   30    17    19 ar
   31    18    47 1
   32    18    48 1
   33    19    49 1
   34    20    21 ar
   35    20    32 ar
   36    21    22 1
   37    21    23 ar
   38    23    24 1
   39    23    27 ar
   40    24    25 1
   41    25    26 1
   42    25    50 1
   43    25    51 1
   44    26    52 1
   45    26    53 1
   46    26    54 1
   47    27    28 ar
   48    27    55 1
   49    28    29 1
   50    28    32 ar
   51    29    30 1
   52    30    31 1
   53    30    56 1
   54    30    57 1
   55    31    58 1
   56    31    59 1
   57    31    60 1
   58    32    61 1
   59    33    34 ar
   60    33    62 1
   61    34    35 ar
   62    34    63 1
   63    35    36 1
   64    36    37 2
   65    36    38 1
   66    37    64 1
   67    37    65 1
   68    38    66 1
   69    38    67 1
@<TRIPOS>SUBSTRUCTURE
1   ****   1
@<TRIPOS>MOLECULE
1yqy
41  42  1  0  0
SMALL
FORMAL_CHARGES
@<TRIPOS>ATOM
    1 C1         1.1609    -0.6717    -0.0001 C.ar       1 ****  0
    2 C2         1.1659     0.7179     0.0000 C.ar       1 ****  0
    3 C3        -0.0354     1.4162    -0.0000 C.ar       1 ****  0
    4 C4        -1.2414     0.7255    -0.0001 C.ar       1 ****  0
    5 C5        -1.2464    -0.6643    -0.0002 C.ar       1 ****  0
    6 C6        -0.0449    -1.3628    -0.0002 C.ar       1 ****  0
    7 F1        -2.3982     1.3992    -0.0001 F          1 ****  0
    8 C7        -0.0302     2.9141     0.0001 C.3        1 ****  0
    9 S1         2.6845    -1.5579    -0.0000 S.O2       1 ****  0
   10 N1         3.9859    -0.4655     0.1149 N.am       1 ****  0
   11 C8         5.1821    -0.1924     0.9618 C.3        1 ****  0
   12 C9         5.5587    -1.5561     1.5543 C.2        1 ****  0
   13 N2         4.6702    -1.2853     2.5962 N.am       1 ****  0
   14 O1         4.9139    -1.7524     3.8099 O.3        1 ****  -1
   15 O2         6.5573    -2.2543     1.7597 O.2        1 ****  0
   16 O3         2.7104    -2.5164     1.1754 O.2        1 ****  0
   17 O4         2.8055    -2.3519    -1.2869 O.2        1 ****  0
   18 C10        6.3209     0.1764    -0.0419 C.3        1 ****  0
   19 C11        6.1154     1.2654     1.0153 C.3        1 ****  0
   20 C12        7.0827     2.4263     0.7160 C.3        1 ****  0
   21 O5         6.8137     2.9654    -0.5919 O.3        1 ****  0
   22 C13        7.0464     1.9751    -1.6110 C.3        1 ****  0
   23 C14        6.0790     0.7905    -1.4238 C.3        1 ****  0
   24 H1         2.1203     1.2648     0.0001 H          1 ****  0
   25 H2        -2.2008    -1.2111    -0.0003 H          1 ****  0
   26 H3        -0.0483    -2.4628    -0.0003 H          1 ****  0
   27 H4         0.5581     3.1978    -0.8851 H          1 ****  0
   28 H5         0.5580     3.1977     0.8854 H          1 ****  0
   29 H6        -1.0342     3.3636     0.0001 H          1 ****  0
   30 H7         3.8121     0.5497     0.1262 H          1 ****  0
   31 H8         5.0424     0.5844     1.7281 H          1 ****  0
   32 H9         3.8257    -0.7224     2.4204 H          1 ****  0
   33 H10        7.3440    -0.2228     0.0209 H          1 ****  0
   34 H11        6.3287     0.8567     2.0140 H          1 ****  0
   35 H12        5.0784     1.6298     0.9732 H          1 ****  0
   36 H13        6.9507     3.2161     1.4702 H          1 ****  0
   37 H14        8.1189     2.0591     0.7528 H          1 ****  0
   38 H15        6.8849     2.4253    -2.6016 H          1 ****  0
   39 H16        8.0831     1.6141    -1.5412 H          1 ****  0
   40 H17        6.2668     0.0353    -2.2012 H          1 ****  0
   41 H18        5.0411     1.1484    -1.4930 H          1 ****  0
@<TRIPOS>BOND
    1     1     2 ar
    2     1     6 ar
    3     1     9 1
    4     2     3 ar
    5     2    24 1
    6     3     4 ar
    7     3     8 1
    8     4     5 ar
    9     4     7 1
   10     5     6 ar
   11     5    25 1
   12     6    26 1
   13     8    27 1
   14     8    28 1
   15     8    29 1
   16     9    10 am
   17     9    16 2
   18     9    17 2
   19    10    30 1
   20    11    10 1
   21    11    12 1
   22    11    18 1
   23    11    31 1
   24    12    13 am
   25    12    15 2
   26    13    14 1
   27    13    32 1
   28    18    19 1
   29    18    23 1
   30    18    33 1
   31    19    20 1
   32    19    34 1
   33    19    35 1
   34    20    21 1
   35    20    36 1
   36    20    37 1
   37    21    22 1
   38    22    23 1
   39    22    38 1
   40    22    39 1
   41    23    40 1
   42    23    41 1
@<TRIPOS>SUBSTRUCTURE
1   ****   1
@<TRIPOS>MOLECULE
1yv3
38  41  1  0  0
SMALL
FORMAL_CHARGES
@<TRIPOS>ATOM
    1 O1         2.3579    -1.2662     0.5858 O.2        1 ****  0
    2 C1         1.2871    -0.6870     0.3761 C.2        1 ****  0
    3 C2         1.2455     0.7450     0.1360 C.ar       1 ****  0
    4 C3         2.4186     1.4830     0.0597 C.ar       1 ****  0
    5 C4         2.3584     2.8547    -0.1568 C.ar       1 ****  0
    6 C5         3.6212     3.6570    -0.2304 C.3        1 ****  0
    7 C6         1.1271     3.4830    -0.3023 C.ar       1 ****  0
    8 C7         0.0106     1.3725    -0.0081 C.ar       1 ****  0
    9 C8        -0.0467     2.7422    -0.2284 C.ar       1 ****  0
   10 C9         0.0194    -0.9945     1.4283 C.3        1 ****  0
   11 C10       -1.1470    -0.6356     0.2357 C.2        1 ****  0
   12 N1        -1.1789     0.6331     0.1491 N.2        1 ****  0
   13 O2        -0.0200    -0.5393     2.7842 O.3        1 ****  0
   14 C11       -0.2790    -2.6541     0.9750 C.3        1 ****  0
   15 C12       -1.8194    -2.8495     0.6625 C.3        1 ****  0
   16 N2        -2.2435    -1.4417     0.5370 N.pl3      1 ****  0
   17 C13       -3.5881    -0.9674     0.7226 C.ar       1 ****  0
   18 C14       -3.8732     0.3865     0.5927 C.ar       1 ****  0
   19 C15       -5.1735     0.8432     0.7730 C.ar       1 ****  0
   20 C16       -6.1883    -0.0543     1.0832 C.ar       1 ****  0
   21 C17       -5.9032    -1.4084     1.2132 C.ar       1 ****  0
   22 C18       -4.6030    -1.8651     1.0329 C.ar       1 ****  0
   23 H1         3.3926     0.9840     0.1701 H          1 ****  0
   24 H2         4.2125     3.1859    -1.0294 H          1 ****  0
   25 H3         4.1412     3.4586     0.7184 H          1 ****  0
   26 H4         3.4580     4.7308    -0.4046 H          1 ****  0
   27 H5         1.0816     4.5682    -0.4763 H          1 ****  0
   28 H6        -1.0204     3.2408    -0.3444 H          1 ****  0
   29 H7         0.8881    -2.4873    -1.4130 H          1 ****  0
   30 H8         0.2903    -3.5417     0.6618 H          1 ****  0
   31 H9        -0.1337    -2.3955     2.0342 H          1 ****  0
   32 H10       -2.3249    -3.3334     1.5113 H          1 ****  0
   33 H11       -1.9522    -3.3820    -0.2909 H          1 ****  0
   34 H12       -3.0698     1.0967     0.3472 H          1 ****  0
   35 H13       -5.3993     1.9149     0.6702 H          1 ****  0
   36 H14       -7.2173     0.3072     1.2259 H          1 ****  0
   37 H15       -6.7065    -2.1186     1.4587 H          1 ****  0
   38 H16       -4.3772    -2.9367     1.1357 H          1 ****  0
@<TRIPOS>BOND
    1     1     2 2
    2     2     3 1
    3     2    10 1
    4     3     4 ar
    5     3     8 ar
    6     4     5 ar
    7     4    23 1
    8     5     6 1
    9     5     7 ar
   10     6    24 1
   11     6    25 1
   12     6    26 1
   13     7     9 ar
   14     7    27 1
   15     8     9 ar
   16     8    12 1
   17     9    28 1
   18    10    11 1
   19    10    13 1
   20    10    14 1
   21    11    12 2
   22    11    16 1
   23    13    29 1
   24    14    15 1
   25    14    30 1
   26    14    31 1
   27    15    16 1
   28    15    32 1
   29    15    33 1
   30    16    17 1
   31    17    18 ar
   32    17    22 ar
   33    18    19 ar
   34    18    34 1
   35    19    20 ar
   36    19    35 1
   37    20    21 ar
   38    20    36 1
   39    21    22 ar
   40    21    37 1
   41    22    38 1
@<TRIPOS>SUBSTRUCTURE
1   ****   1
@<TRIPOS>MOLECULE
1yvf
43  45  1  0  0
SMALL
FORMAL_CHARGES
@<TRIPOS>ATOM
    1 C1         2.5038    -1.4424    -0.0001 C.2        1 ****  0
    2 C2         3.8057    -1.0665    -0.0003 C.2        1 ****  0
    3 N1         3.9623     0.3727    -0.0007 N.am       1 ****  0
    4 C3         5.1578     1.1480    -0.0009 C.2        1 ****  0
    5 O1         6.2804     0.6464    -0.0008 O.2        1 ****  0
    6 C4         1.1920    -0.6884    -0.0001 C.ar       1 ****  0
    7 C5         1.1928     0.7015     0.0001 C.ar       1 ****  0
    8 C6        -1.2141     0.7012    -0.0001 C.ar       1 ****  0
    9 C7        -0.0114    -1.3835    -0.0003 C.ar       1 ****  0
   10 C8        -1.2147    -0.6886    -0.0003 C.ar       1 ****  0
   11 C9        -3.7622     0.7619    -0.0003 C.ar       1 ****  0
   12 C10       -4.8751     1.5981    -0.0002 C.ar       1 ****  0
   13 C11       -6.1554     1.0576    -0.0005 C.ar       1 ****  0
   14 C12       -6.3264    -0.3215    -0.0009 C.ar       1 ****  0
   15 C13       -5.2173    -1.1591    -0.0010 C.ar       1 ****  0
   16 C14       -3.9370    -0.6183    -0.0007 C.ar       1 ****  0
   17 C15        5.0076    -2.0159    -0.0001 C.2        1 ****  0.0000
   18 O2         4.8793    -3.2362     0.0007 O.co2      1 ****  -0.50
   19 O3         6.2654    -1.5520    -0.0008 O.co2      1 ****  -0.50
   20 C16        5.0519     2.6049    -0.0011 C.ar       1 ****  0
   21 C17        3.8018     3.2106    -0.0012 C.ar       1 ****  0
   22 C18        3.7015     4.5975    -0.0014 C.ar       1 ****  0
   23 C19        4.8516     5.3768    -0.0016 C.ar       1 ****  0
   24 C20        6.1028     4.7704    -0.0015 C.ar       1 ****  0
   25 C21        6.2030     3.3848    -0.0013 C.ar       1 ****  0
   26 C22       -0.0106     1.3965     0.0001 C.ar       1 ****  0
   27 O4        -2.4672     1.4202    -0.0001 O.3        1 ****  0
   28 Br1       -4.6398     3.4796     0.0003 Br         1 ****  0
   29 H1         2.3718    -2.5344     0.0002 H          1 ****  0
   30 H2         3.0852     0.9128    -0.0009 H          1 ****  0
   31 H3         2.1457     1.2512     0.0003 H          1 ****  0
   32 H4        -0.0113    -2.4835    -0.0004 H          1 ****  0
   33 H5        -2.1675    -1.2383    -0.0004 H          1 ****  0
   34 H6        -7.0329     1.7210    -0.0005 H          1 ****  0
   35 H7        -7.3395    -0.7502    -0.0011 H          1 ****  0
   36 H8        -5.3529    -2.2508    -0.0012 H          1 ****  0
   37 H9        -3.0603    -1.2827    -0.0007 H          1 ****  0
   38 H10        2.8914     2.5932    -0.0010 H          1 ****  0
   39 H11        2.7117     5.0775    -0.0014 H          1 ****  0
   40 H12        4.7723     6.4739    -0.0017 H          1 ****  0
   41 H13        7.0132     5.3878    -0.0017 H          1 ****  0
   42 H14        7.1928     2.9048    -0.0013 H          1 ****  0
   43 H15       -0.0107     2.4965     0.0003 H          1 ****  0
@<TRIPOS>BOND
    1     1     2 2
    2     1     6 1
    3     1    29 1
    4     2     3 1
    5     2    17 1
    6     3     4 am
    7     3    30 1
    8     4     5 2
    9     4    20 1
   10     6     7 ar
   11     6     9 ar
   12     7    26 ar
   13     7    31 1
   14     8    10 ar
   15     8    26 ar
   16     8    27 1
   17     9    10 ar
   18     9    32 1
   19    10    33 1
   20    11    12 ar
   21    11    16 ar
   22    11    27 1
   23    12    13 ar
   24    12    28 1
   25    13    14 ar
   26    13    34 1
   27    14    15 ar
   28    14    35 1
   29    15    16 ar
   30    15    36 1
   31    16    37 1
   32    17    18 ar
   33    17    19 ar
   34    20    21 ar
   35    20    25 ar
   36    21    22 ar
   37    21    38 1
   38    22    23 ar
   39    22    39 1
   40    23    24 ar
   41    23    40 1
   42    24    25 ar
   43    24    41 1
   44    25    42 1
   45    26    43 1
@<TRIPOS>SUBSTRUCTURE
1   ****   1
@<TRIPOS>MOLECULE
1ywr
65  69  1  0  0
SMALL
FORMAL_CHARGES
@<TRIPOS>ATOM
    1 C1         2.6914    -2.6591     0.4086 C.ar       1 ****  0
    2 C2         1.4554    -4.6302    -1.1151 C.ar       1 ****  0
    3 C3         1.4773    -2.3877    -0.1968 C.ar       1 ****  0
    4 C4         3.2870    -3.9064     0.2498 C.ar       1 ****  0
    5 C5         2.6835    -4.8861    -0.5254 C.ar       1 ****  0
    6 C6         0.8549    -3.3916    -0.9321 C.ar       1 ****  0
    7 C7         0.7637    -1.1030    -0.0104 C.2        1 ****  0
    8 F1         3.2866    -6.0691    -0.7063 F          1 ****  0
    9 N1        -1.1390     0.2080     0.1580 N.am       1 ****  0
   10 C8        -2.5755     0.6790     0.2164 C.3        1 ****  0
   11 C9        -0.0872     2.4801     0.5898 C.3        1 ****  0
   12 C10        1.2039     0.1567     0.2246 C.2        1 ****  0
   13 C11        2.6703     0.6694     0.3394 C.ar       1 ****  0
   14 O1        -1.3324    -2.1054    -0.2371 O.2        1 ****  0
   15 C12       -0.6626    -1.0866    -0.0694 C.2        1 ****  0
   16 N2        -0.0245     1.0191     0.3344 N.3        1 ****  0
   17 C13       -3.5642    -1.0811    -1.3335 C.3        1 ****  0
   18 C14       -3.5824    -1.4854     1.1000 C.3        1 ****  0
   19 C15       -3.3779     0.0159     1.3664 C.3        1 ****  0
   20 C16       -3.3556     0.4248    -1.0989 C.3        1 ****  0
   21 N3        -4.2922    -1.6975    -0.1907 N.4        1 ****  1
   22 N4         3.7252    -0.1172     0.1931 N.ar       1 ****  0
   23 C17        4.2073     2.4994     0.6180 C.ar       1 ****  0
   24 N5         6.1097    -0.5247     0.0569 N.pl3      1 ****  0
   25 C18        2.9093     2.0262     0.5542 C.ar       1 ****  0
   26 C19        4.9827     0.3666     0.2485 C.ar       1 ****  0
   27 N6         5.2126     1.6481     0.4591 N.ar       1 ****  0
   28 C20        5.7804    -1.8289    -0.4676 C.3        1 ****  0
   29 C21        6.8308    -2.8807    -0.3353 C.ar       1 ****  0
   30 C22        5.3810    -1.7159    -1.9495 C.3        1 ****  0
   31 C23        8.7059    -4.9183    -0.1277 C.ar       1 ****  0
   32 C24        8.1158    -2.5891     0.1040 C.ar       1 ****  0
   33 C25        6.4861    -4.1858    -0.6652 C.ar       1 ****  0
   34 C26        7.4193    -5.2078    -0.5624 C.ar       1 ****  0
   35 C27        9.0520    -3.6127     0.2048 C.ar       1 ****  0
   36 H1         3.1732    -1.9085     0.9998 H          1 ****  0
   37 H2         0.9741    -5.3809    -1.7064 H          1 ****  0
   38 H3         4.2203    -4.1124     0.7308 H          1 ****  0
   39 H4        -0.1057    -3.2055    -1.3652 H          1 ****  0
   40 H5        -2.5760     1.7576     0.3958 H          1 ****  0
   41 H6        -0.7541     2.5343     1.4662 H          1 ****  0
   42 H7        -0.7023     2.8370    -0.2528 H          1 ****  0
   43 H8         0.7657     2.9225     0.6934 H          1 ****  0
   44 H9        -4.1323    -1.2265    -2.2377 H          1 ****  0
   45 H10       -2.6091    -1.5609    -1.4463 H          1 ****  0
   46 H11       -4.1602    -1.9144     1.8976 H          1 ****  0
   47 H12       -2.6241    -1.9758     1.0643 H          1 ****  0
   48 H13       -2.8437     0.1435     2.2946 H          1 ****  0
   49 H14       -4.3370     0.4947     1.4552 H          1 ****  0
   50 H15       -2.8069     0.8403    -1.9258 H          1 ****  0
   51 H16       -4.3158     0.9133    -1.0449 H          1 ****  0
   52 H17       -4.3772    -2.7116    -0.3601 H          1 ****  0
   53 H18       -5.2254    -1.2846    -0.1284 H          1 ****  0
   54 H19        4.3982     3.5376     0.7931 H          1 ****  0
   55 H20        7.0268    -0.0891    -0.1172 H          1 ****  0
   56 H21        2.0877     2.7019     0.6697 H          1 ****  0
   57 H22        4.9483    -2.1655     0.0755 H          1 ****  0
   58 H23        6.1980    -1.3030    -2.5047 H          1 ****  0
   59 H24        4.5316    -1.0701    -2.0378 H          1 ****  0
   60 H25        5.1384    -2.6834    -2.3326 H          1 ****  0
   61 H26        9.4318    -5.7004    -0.0484 H          1 ****  0
   62 H27        8.3832    -1.5858     0.3625 H          1 ****  0
   63 H28        5.4939    -4.4044    -1.0008 H          1 ****  0
   64 H29        7.1493    -6.2115    -0.8164 H          1 ****  0
   65 H30       10.0444    -3.3946     0.5401 H          1 ****  0
@<TRIPOS>BOND
    1     1     3 ar
    2     1     4 ar
    3     1    36 1
    4     2     5 ar
    5     2     6 ar
    6     2    37 1
    7     3     6 ar
    8     3     7 1
    9     4     5 ar
   10     4    38 1
   11     5     8 1
   12     6    39 1
   13     7    12 2
   14     7    15 1
   15     9    10 1
   16     9    15 am
   17     9    16 1
   18    10    19 1
   19    10    20 1
   20    10    40 1
   21    11    16 1
   22    11    41 1
   23    11    42 1
   24    11    43 1
   25    12    13 1
   26    12    16 1
   27    13    22 ar
   28    13    25 ar
   29    14    15 2
   30    17    20 1
   31    17    21 1
   32    17    44 1
   33    17    45 1
   34    18    19 1
   35    18    21 1
   36    18    46 1
   37    18    47 1
   38    19    48 1
   39    19    49 1
   40    20    50 1
   41    20    51 1
   42    21    52 1
   43    21    53 1
   44    22    26 ar
   45    23    25 ar
   46    23    27 ar
   47    23    54 1
   48    24    26 1
   49    24    28 1
   50    24    55 1
   51    25    56 1
   52    26    27 ar
   53    28    29 1
   54    28    30 1
   55    28    57 1
   56    29    32 ar
   57    29    33 ar
   58    30    58 1
   59    30    59 1
   60    30    60 1
   61    31    34 ar
   62    31    35 ar
   63    31    61 1
   64    32    35 ar
   65    32    62 1
   66    33    34 ar
   67    33    63 1
   68    34    64 1
   69    35    65 1
@<TRIPOS>SUBSTRUCTURE
1   ****   1
@<TRIPOS>MOLECULE
1z95
43  44  1  0  0
SMALL
FORMAL_CHARGES
@<TRIPOS>ATOM
    1 C1         9.0901     0.3974    -0.0558 C.ar       1 ****  0
    2 C2        10.2556     1.1515    -0.1199 C.ar       1 ****  0
    3 C3        11.4918     0.5175    -0.1578 C.ar       1 ****  0
    4 F1        12.6146     1.2440    -0.2195 F          1 ****  0
    5 C4        11.5631    -0.8702    -0.1316 C.ar       1 ****  0
    6 C5        10.3975    -1.6243    -0.0675 C.ar       1 ****  0
    7 C6         9.1617    -0.9901    -0.0297 C.ar       1 ****  0
    8 S1         7.6828    -1.9543     0.0722 S.O2       1 ****  0
    9 O1         7.6268    -2.9001    -1.1122 O.2        1 ****  0
   10 O2         7.7269    -2.7645     1.3539 O.2        1 ****  0
   11 C7         6.2243    -0.8612     0.0447 C.3        1 ****  0
   12 C8         4.9198    -1.6975     0.0569 C.3        1 ****  0
   13 O3         4.9056    -2.5734    -1.0715 O.3        1 ****  0
   14 C9         4.8194    -2.5311     1.3453 C.3        1 ****  0
   15 C10        3.7238    -0.8015    -0.0102 C.2        1 ****  0
   16 O4         3.8821     0.4240    -0.0554 O.2        1 ****  0
   17 N1         2.4373    -1.3998    -0.0007 N.am       1 ****  0
   18 C11        1.2103    -0.6938    -0.0001 C.ar       1 ****  0
   19 C12        1.2099     0.6957     0.0000 C.ar       1 ****  0
   20 C13        0.0071    -1.3894    -0.0002 C.ar       1 ****  0
   21 C14       -1.1965    -0.6951    -0.0002 C.ar       1 ****  0
   22 C15       -1.1973     0.6947    -0.0001 C.ar       1 ****  0
   23 C16       -2.4392     1.4077    -0.0025 C.1        1 ****  0
   24 N2        -3.4351     1.9854    -0.0073 N.1        1 ****  0
   25 C17        0.0061     1.3904     0.0000 C.ar       1 ****  0
   26 C18        0.0085     2.8892    -0.0007 C.3        1 ****  0
   27 F2         1.3046     3.3571    -0.0860 F          1 ****  0
   28 F3        -0.7218     3.3482    -1.0777 F          1 ****  0
   29 F4        -0.5707     3.3433     1.1656 F          1 ****  0
   30 H1         8.1114     0.8986    -0.0256 H          1 ****  0
   31 H2        10.1997     2.2499    -0.1406 H          1 ****  0
   32 H3        12.5418    -1.3715    -0.1617 H          1 ****  0
   33 H4        10.4531    -2.7227    -0.0467 H          1 ****  0
   34 H5         6.2430    -0.2049     0.9273 H          1 ****  0
   35 H6         6.2489    -0.2405    -0.8631 H          1 ****  0
   36 H7         5.6864    -3.1806    -1.0290 H          1 ****  0
   37 H8         4.8291    -1.8529     2.2113 H          1 ****  0
   38 H9         5.6877    -3.2038     1.4042 H          1 ****  0
   39 H10        3.8903    -3.1199     1.3426 H          1 ****  0
   40 H11        2.3926    -2.4289     0.0064 H          1 ****  0
   41 H12        2.1624     1.2460     0.0001 H          1 ****  0
   42 H13        0.0077    -2.4894    -0.0003 H          1 ****  0
   43 H14       -2.1489    -1.2456    -0.0003 H          1 ****  0
@<TRIPOS>BOND
    1     1     2 ar
    2     1     7 ar
    3     1    30 1
    4     2     3 ar
    5     2    31 1
    6     3     4 1
    7     3     5 ar
    8     5     6 ar
    9     5    32 1
   10     6     7 ar
   11     6    33 1
   12     7     8 1
   13     8     9 2
   14     8    10 2
   15     8    11 1
   16    11    12 1
   17    11    34 1
   18    11    35 1
   19    12    13 1
   20    12    14 1
   21    12    15 1
   22    13    36 1
   23    14    37 1
   24    14    38 1
   25    14    39 1
   26    15    16 2
   27    15    17 am
   28    17    18 1
   29    17    40 1
   30    18    19 ar
   31    18    20 ar
   32    19    25 ar
   33    19    41 1
   34    20    21 ar
   35    20    42 1
   36    21    22 ar
   37    21    43 1
   38    22    23 1
   39    22    25 ar
   40    23    24 3
   41    25    26 1
   42    26    27 1
   43    26    28 1
   44    26    29 1
@<TRIPOS>SUBSTRUCTURE
1   ****   1
@<TRIPOS>MOLECULE
2bm2
60  63  1  0  0
SMALL
FORMAL_CHARGES
@<TRIPOS>ATOM
    1 C1         1.2077    -0.6926    -0.0001 C.ar       1 ****  0
    2 C2         1.2082     0.6971     0.0001 C.ar       1 ****  0
    3 C3         0.0040    -1.3875    -0.0002 C.ar       1 ****  0
    4 C4         0.0046     1.3918     0.0000 C.ar       1 ****  0
    5 C5        -1.1995    -0.6926    -0.0003 C.ar       1 ****  0
    6 C6        -1.1991     0.6971    -0.0001 C.ar       1 ****  0
    7 C7         0.0047     2.8905     0.0002 C.3        1 ****  0
    8 N1         1.3896     3.3835    -0.0004 N.4        1 ****  1
    9 C8         3.3177    -1.0564    -1.2438 C.3        1 ****  0
   10 C9         3.5566     0.4640    -1.2470 C.3        1 ****  0
   11 C10        5.2219     1.8552    -0.0144 C.2        1 ****  0
   12 O1         5.6428     2.2316     1.0852 O.2        1 ****  0
   13 C11        2.5042    -1.4416    -0.0000 C.3        1 ****  0
   14 N2         4.1507     0.8860    -0.0018 N.am       1 ****  0
   15 C12        3.5801     0.4621     1.2543 C.3        1 ****  0
   16 C13        3.3170    -1.0574     1.2444 C.3        1 ****  0
   17 C14        5.8828     2.4569    -1.2390 C.ar       1 ****  0
   18 C15        5.5270     2.1399    -2.5431 C.ar       1 ****  0
   19 C16        6.9023     3.3776    -1.0169 C.ar       1 ****  0
   20 C17        6.2063     2.7576    -3.5833 C.ar       1 ****  0
   21 N3         7.5334     3.9515    -2.0359 N.ar       1 ****  0
   22 C18        5.8543     2.4445    -5.0085 C.3        1 ****  0
   23 C19        7.2155     3.6686    -3.2948 C.ar       1 ****  0
   24 C20        4.7099     1.4104    -5.0544 C.3        1 ****  0
   25 C21        4.3549     1.0947    -6.4836 C.ar       1 ****  0
   26 C22        5.0352     1.7135    -7.5246 C.ar       1 ****  0
   27 C23        3.3433     0.1813    -6.7591 C.ar       1 ****  0
   28 C24        4.7046     1.4195    -8.8429 C.ar       1 ****  0
   29 C25        3.0130    -0.1124    -8.0762 C.ar       1 ****  0
   30 C26        3.6939     0.5070    -9.1182 C.ar       1 ****  0
   31 H1         2.1609     1.2470     0.0002 H          1 ****  0
   32 H2         0.0040    -2.4875    -0.0003 H          1 ****  0
   33 H3        -2.1522    -1.2425    -0.0004 H          1 ****  0
   34 H4        -2.1516     1.2474    -0.0001 H          1 ****  0
   35 H5        -0.5145     3.2570    -0.8976 H          1 ****  0
   36 H6        -0.5138     3.2579     0.8981 H          1 ****  0
   37 H7         1.8757     3.0408    -0.8413 H          1 ****  0
   38 H8         1.8765     3.0406     0.8400 H          1 ****  0
   39 H9         1.3891     4.4135    -0.0003 H          1 ****  0
   40 H10        4.2845    -1.5808    -1.2258 H          1 ****  0
   41 H11        2.7613    -1.3424    -2.1486 H          1 ****  0
   42 H12        2.5975     0.9842    -1.3861 H          1 ****  0
   43 H13        4.2294     0.7254    -2.0771 H          1 ****  0
   44 H14        2.2955    -2.5216    -0.0006 H          1 ****  0
   45 H15        4.2764     0.7053     2.0704 H          1 ****  0
   46 H16        2.6321     0.9941     1.4221 H          1 ****  0
   47 H17        2.7553    -1.3363     2.1482 H          1 ****  0
   48 H18        4.2774    -1.5937     1.2348 H          1 ****  0
   49 H19        4.7247     1.4156    -2.7470 H          1 ****  0
   50 H20        7.1892     3.6331     0.0139 H          1 ****  0
   51 H21        5.5340     3.3660    -5.5167 H          1 ****  0
   52 H22        6.7365     2.0351    -5.5224 H          1 ****  0
   53 H23        7.7564     4.1604    -4.1167 H          1 ****  0
   54 H24        3.8267     1.8185    -4.5413 H          1 ****  0
   55 H25        5.0297     0.4888    -4.5462 H          1 ****  0
   56 H26        5.8354     2.4361    -7.3062 H          1 ****  0
   57 H27        2.8048    -0.3086    -5.9345 H          1 ****  0
   58 H28        5.2431     1.9094    -9.6675 H          1 ****  0
   59 H29        2.2129    -0.8350    -8.2946 H          1 ****  0
   60 H30        3.4323     0.2743   -10.1610 H          1 ****  0
@<TRIPOS>BOND
    1     1     2 ar
    2     1     3 ar
    3     1    13 1
    4     2     4 ar
    5     2    31 1
    6     3     5 ar
    7     3    32 1
    8     4     6 ar
    9     4     7 1
   10     5     6 ar
   11     5    33 1
   12     6    34 1
   13     7     8 1
   14     7    35 1
   15     7    36 1
   16     8    37 1
   17     8    38 1
   18     8    39 1
   19     9    10 1
   20     9    13 1
   21     9    40 1
   22     9    41 1
   23    10    14 1
   24    10    42 1
   25    10    43 1
   26    11    12 2
   27    11    14 am
   28    11    17 1
   29    13    16 1
   30    13    44 1
   31    14    15 1
   32    15    16 1
   33    15    45 1
   34    15    46 1
   35    16    47 1
   36    16    48 1
   37    17    18 ar
   38    17    19 ar
   39    18    20 ar
   40    18    49 1
   41    19    21 ar
   42    19    50 1
   43    20    22 1
   44    20    23 ar
   45    21    23 ar
   46    22    24 1
   47    22    51 1
   48    22    52 1
   49    23    53 1
   50    24    25 1
   51    24    54 1
   52    24    55 1
   53    25    26 ar
   54    25    27 ar
   55    26    28 ar
   56    26    56 1
   57    27    29 ar
   58    27    57 1
   59    28    30 ar
   60    28    58 1
   61    29    30 ar
   62    29    59 1
   63    30    60 1
@<TRIPOS>SUBSTRUCTURE
1   ****   1
@<TRIPOS>MOLECULE
2br1
50  53  1  0  0
SMALL
FORMAL_CHARGES
@<TRIPOS>ATOM
    1 C1         8.7615    -2.0265    -0.0015 C.3        1 ****  0
    2 O1         8.0880    -0.7605     0.0017 O.3        1 ****  0
    3 C2         6.7097    -0.9569     0.0005 C.ar       1 ****  0
    4 C3         6.1796    -2.2334    -0.0036 C.ar       1 ****  0
    5 C4         4.8034    -2.4008    -0.0052 C.ar       1 ****  0
    6 C5         5.8384     0.1189     0.0034 C.ar       1 ****  0
    7 C6         4.4660    -0.1012     0.0024 C.ar       1 ****  0
    8 C7         3.8903    -1.3599    -0.0021 C.ar       1 ****  0
    9 C8         2.2893    -1.6075    -0.0025 C.ar       1 ****  0
   10 C9         1.2386    -0.6633    -0.0033 C.ar       1 ****  0
   11 C10        1.0998     0.7403    -0.0050 C.ar       1 ****  0
   12 N1         2.1442     1.7180    -0.0095 N.pl3      1 ****  0
   13 C11        1.8793     3.1424     0.0111 C.3        1 ****  0
   14 C12        3.2760     3.8083    -0.0544 C.3        1 ****  0
   15 O2         3.1681     5.2228     0.0073 O.3        1 ****  0
   16 N2        -0.1350     1.2357    -0.0024 N.ar       1 ****  0
   17 C13       -1.2218     0.4688     0.0004 C.ar       1 ****  0
   18 N3        -1.1270    -0.8543     0.0005 N.ar       1 ****  0
   19 C14        0.0761    -1.4032    -0.0010 C.ar       1 ****  0
   20 O3         0.3230    -2.6662    -0.0002 O.2        1 ****  0
   21 C15        1.6051    -2.8564    -0.0010 C.ar       1 ****  0
   22 C16        2.1118    -4.3194     0.0003 C.ar       1 ****  0
   23 C17        3.4523    -4.6487     0.0017 C.ar       1 ****  0
   24 C18        3.9200    -5.9465     0.0011 C.ar       1 ****  0
   25 C19        3.0136    -6.9871    -0.0004 C.ar       1 ****  0
   26 O4         3.4957    -8.2949    -0.0013 O.3        1 ****  0
   27 C20        4.9416    -8.2700    -0.0006 C.3        1 ****  0
   28 C21        1.6506    -6.6997    -0.0011 C.ar       1 ****  0
   29 C22        1.2024    -5.3761    -0.0009 C.ar       1 ****  0
   30 H1         8.4798    -2.5753    -0.8762 H          1 ****  0
   31 H2         8.4790    -2.5801     0.8700 H          1 ****  0
   32 H3         9.8200    -1.8717    -0.0006 H          1 ****  0
   33 H4         6.8265    -3.0858    -0.0056 H          1 ****  0
   34 H5         4.4217    -3.4004    -0.0090 H          1 ****  0
   35 H6         6.2209     1.1182     0.0064 H          1 ****  0
   36 H7         3.8181     0.7504     0.0053 H          1 ****  0
   37 H8         3.0286     1.4785    -0.0012 H          1 ****  0
   38 H9         1.3152     3.4154    -0.8365 H          1 ****  0
   39 H10        1.4027     3.4064     0.9100 H          1 ****  0
   40 H11        3.7622     3.5298    -0.9724 H          1 ****  0
   41 H12        3.8767     3.4613     0.7711 H          1 ****  0
   42 H13        2.7600     5.4799     0.8669 H          1 ****  0
   43 H14       -2.1888     0.9269     0.0026 H          1 ****  0
   44 H15        4.1682    -3.8535     0.0033 H          1 ****  0
   45 H16        4.9717    -6.1437     0.0019 H          1 ****  0
   46 H17        5.2920    -7.7630     0.8731 H          1 ****  0
   47 H18        5.2928    -7.7616    -0.8732 H          1 ****  0
   48 H19        5.3165    -9.2773    -0.0012 H          1 ****  0
   49 H20        0.9402    -7.4999    -0.0018 H          1 ****  0
   50 H21        0.1520    -5.1719    -0.0016 H          1 ****  0
@<TRIPOS>BOND
    1     1     2 1
    2     1    30 1
    3     1    31 1
    4     1    32 1
    5     2     3 1
    6     3     4 ar
    7     3     6 ar
    8     4     5 ar
    9     4    33 1
   10     5     8 ar
   11     5    34 1
   12     6     7 ar
   13     6    35 1
   14     7     8 ar
   15     7    36 1
   16     8     9 1
   17     9    10 ar
   18     9    21 ar
   19    10    11 ar
   20    10    19 ar
   21    11    12 1
   22    11    16 ar
   23    12    13 1
   24    12    37 1
   25    13    14 1
   26    13    38 1
   27    13    39 1
   28    14    15 1
   29    14    40 1
   30    14    41 1
   31    15    42 1
   32    16    17 ar
   33    17    18 ar
   34    17    43 1
   35    18    19 ar
   36    19    20 ar
   37    20    21 ar
   38    21    22 1
   39    22    23 ar
   40    22    29 ar
   41    23    24 ar
   42    23    44 1
   43    24    25 ar
   44    24    45 1
   45    25    26 1
   46    25    28 ar
   47    26    27 1
   48    27    46 1
   49    27    47 1
   50    27    48 1
   51    28    29 ar
   52    28    49 1
   53    29    50 1
@<TRIPOS>SUBSTRUCTURE
1   ****   1
@<TRIPOS>MOLECULE
2bsm
45  47  1  0  0
SMALL
FORMAL_CHARGES
@<TRIPOS>ATOM
    1 C1         6.6801     4.9596    -0.0336 C.3        1 ****  0
    2 O1         5.2624     4.8091     0.0100 O.3        1 ****  0
    3 C2         4.9158     3.4591     0.0293 C.ar       1 ****  0
    4 C3         5.8785     2.4595     0.0011 C.ar       1 ****  0
    5 C4         5.4983     1.1211     0.0158 C.ar       1 ****  0
    6 C5         3.5828     3.0983     0.0809 C.ar       1 ****  0
    7 C6         3.2411     1.7555     0.0984 C.ar       1 ****  0
    8 C7         4.1660     0.7250     0.0609 C.ar       1 ****  0
    9 C8         3.7513    -0.8189     0.0462 C.ar       1 ****  0
   10 C9         4.6437    -1.8994     0.0198 C.ar       1 ****  0
   11 C10        6.1505    -1.9337     0.0195 C.2        1 ****  0
   12 O2         6.8484    -0.9257     0.0320 O.2        1 ****  0
   13 N1         6.8164    -3.1501    -0.0003 N.am       1 ****  0
   14 C11        8.2538    -3.1459    -0.0070 C.3        1 ****  0
   15 C12        8.7907    -4.5832    -0.0013 C.3        1 ****  0
   16 N2         3.9499    -3.0249    -0.0207 N.ar       1 ****  0
   17 N3         2.7145    -2.7498    -0.0223 N.ar       1 ****  0
   18 C13        2.4758    -1.4423     0.0350 C.ar       1 ****  0
   19 C14        1.0123    -0.8021     0.0221 C.ar       1 ****  0
   20 C15        0.9010     0.5604    -0.1463 C.ar       1 ****  0
   21 C16       -0.2875     1.2628    -0.1944 C.ar       1 ****  0
   22 Cl1       -0.2471     2.9815    -0.3394 Cl         1 ****  0
   23 C17       -1.4738     0.5619    -0.1032 C.ar       1 ****  0
   24 O3        -2.6969     1.2204    -0.2086 O.3        1 ****  0
   25 C18       -1.4166    -0.8124     0.0839 C.ar       1 ****  0
   26 C19       -0.2066    -1.5010     0.1688 C.ar       1 ****  0
   27 O4        -0.3190    -2.8696     0.4100 O.3        1 ****  0
   28 H1         7.0554     4.4802    -0.9153 H          1 ****  0
   29 H2         7.1079     4.4916     0.8301 H          1 ****  0
   30 H3         6.9353     5.9939    -0.0481 H          1 ****  0
   31 H4         6.9160     2.7190    -0.0320 H          1 ****  0
   32 H5         6.2590     0.3690    -0.0084 H          1 ****  0
   33 H6         2.8211     3.8493     0.1071 H          1 ****  0
   34 H7         2.2030     1.4999     0.1435 H          1 ****  0
   35 H8         6.3123    -4.0066    -0.0072 H          1 ****  0
   36 H9         8.6132    -2.6285     0.8613 H          1 ****  0
   37 H10        8.6051    -2.6373    -0.8873 H          1 ****  0
   38 H11        8.4297    -5.0959    -0.8698 H          1 ****  0
   39 H12        8.4379    -5.0859     0.8764 H          1 ****  0
   40 H13        9.8570    -4.5713    -0.0063 H          1 ****  0
   41 H14        2.0493    -3.4286    -0.1915 H          1 ****  0
   42 H15        1.8077     1.1195    -0.2479 H          1 ****  0
   43 H16       -2.5474     2.1879    -0.3519 H          1 ****  0
   44 H17       -2.3312    -1.3617     0.1658 H          1 ****  0
   45 H18        0.5135    -3.2774     0.5162 H          1 ****  0
@<TRIPOS>BOND
    1     1     2 1
    2     1    28 1
    3     1    29 1
    4     1    30 1
    5     2     3 1
    6     3     4 ar
    7     3     6 ar
    8     4     5 ar
    9     4    31 1
   10     5     8 ar
   11     5    32 1
   12     6     7 ar
   13     6    33 1
   14     7     8 ar
   15     7    34 1
   16     8     9 1
   17     9    10 ar
   18     9    18 ar
   19    10    11 1
   20    10    16 ar
   21    11    12 2
   22    11    13 am
   23    13    14 1
   24    13    35 1
   25    14    15 1
   26    14    36 1
   27    14    37 1
   28    15    38 1
   29    15    39 1
   30    15    40 1
   31    16    17 ar
   32    17    18 ar
   33    17    41 1
   34    18    19 1
   35    19    20 ar
   36    19    26 ar
   37    20    21 ar
   38    20    42 1
   39    21    22 1
   40    21    23 ar
   41    23    24 1
   42    23    25 ar
   43    24    43 1
   44    25    26 ar
   45    25    44 1
   46    26    27 1
   47    27    45 1
@<TRIPOS>SUBSTRUCTURE
1   ****   1
