# Name:		1hnn_1
# Pharmacophore name:		UNK
# Created and modified by GAPS on Mon Jun 23 14:31:31 2008

# 
# Fit value:		0
# Energy:		12.9971kJ/mol

@<TRIPOS>MOLECULE
1hnn_1
   26    27         0
SAMLL
USER_CHARGES

@<TRIPOS>ATOM
   1 S1       0.1873  -0.1319   0.0148 S.O2    1 ****    0.0560   
   2 O1      -0.3140  -0.7121  -1.2752 O.2     1 ****    -0.1533  
   3 O2      -0.4646   1.2025   0.2412 O.2     1 ****    -0.1533  
   4 N1       5.9605   2.4367   0.3555 N.3     1 ****    -0.3117  
   5 N2      -0.1843  -1.0577   1.1406 N.3     1 ****    -0.2035  
   6 C1       4.4870   0.0125  -0.0091 C.ar    1 ****    -0.0417  
   7 C2       3.7696   1.2141   0.0152 C.ar    1 ****    -0.0285  
   8 C3       6.0032   0.0224   0.1946 C.3     1 ****    -0.0148  
   9 C4       4.5015   2.5571   0.1355 C.3     1 ****    0.0216   
  10 C5       6.3789   1.2255   1.0860 C.3     1 ****    0.0002   
  11 C6       2.3711   1.1871  -0.0560 C.ar    1 ****    -0.0307  
  12 C7       1.6893  -0.0337  -0.0659 C.ar    1 ****    0.1053   
  13 C8       3.8107  -1.1948  -0.2001 C.ar    1 ****    -0.0564  
  14 C9       2.4151  -1.2243  -0.1526 C.ar    1 ****    -0.0351  
  15 H1       6.3332  -0.9104   0.6790 H       1 ****    0.0326   
  16 H2       6.4937   0.1147  -0.7869 H       1 ****    0.0326   
  17 H3       4.0336   3.1088   0.9664 H       1 ****    0.0474   
  18 H4       4.3504   3.1224  -0.7966 H       1 ****    0.0474   
  19 H5       5.8652   1.1601   2.0597 H       1 ****    0.0427   
  20 H6       7.4680   1.2298   1.2631 H       1 ****    0.0427   
  21 H7       6.3560   3.3289   0.8269 H       1 ****    0.1223   
  22 H8       1.8198   2.1201  -0.0974 H       1 ****    0.0640   
  23 H9       4.3633  -2.1112  -0.3787 H       1 ****    0.0621   
  24 H10      1.8897  -2.1723  -0.1794 H       1 ****    0.0637   
  25 H11     -1.2556  -1.1921   1.1685 H       1 ****    0.1442   
  26 H12      0.1531  -0.6501   2.0832 H       1 ****    0.1442   
@<TRIPOS>BOND
   1    1    2 2   
   2    1    3 2   
   3    1    5 1   
   4    1   12 1   
   5    4    9 1   
   6    4   10 1   
   7    4   21 1   
   8    5   25 1   
   9    5   26 1   
  10    6    7 ar  
  11    6    8 1   
  12    6   13 ar  
  13    7    9 1   
  14    7   11 ar  
  15    8   10 1   
  16    8   15 1   
  17    8   16 1   
  18    9   17 1   
  19    9   18 1   
  20   10   19 1   
  21   10   20 1   
  22   11   12 ar  
  23   11   22 1   
  24   12   14 ar  
  25   13   14 ar  
  26   13   23 1   
  27   14   24 1   
@<TRIPOS>SUBSTRUCTURE
1 **** 2 TEMP 0 **** **** 0 ROOT
# Name:		1hnn_3
# Pharmacophore name:		UNK
# Created and modified by GAPS on Mon Jun 23 14:31:31 2008

# 
# Fit value:		0.0000
# Energy:		12.8368kJ/mol

@<TRIPOS>MOLECULE
1hnn_3
26    27        0    
SAMLL
USER_CHARGES

@<TRIPOS>ATOM
   1 S1       0.1938   0.0364  -0.0043 S.O2    1 ****    0.0560   
   2 O1      -0.1745   0.2584   1.4336 O.2     1 ****    -0.1533  
   3 O2      -0.4278  -1.2450  -0.4834 O.2     1 ****    -0.1533  
   4 N1       5.9795   2.4642   0.3230 N.3     1 ****    -0.3117  
   5 N2      -0.3577   1.1767  -0.8156 N.3     1 ****    -0.2035  
   6 C1       4.5020   0.0244  -0.0009 C.ar    1 ****    -0.0417  
   7 C2       3.7932   1.2327   0.0290 C.ar    1 ****    -0.0285  
   8 C3       6.0215   0.0249   0.1729 C.3     1 ****    -0.0148  
   9 C4       4.5122   2.5796   0.1601 C.3     1 ****    0.0216   
  10 C5       6.4249   1.2452   1.0284 C.3     1 ****    0.0002   
  11 C6       2.3980   1.2133  -0.0395 C.ar    1 ****    -0.0307  
  12 C7       1.6990   0.0058  -0.0782 C.ar    1 ****    0.1053   
  13 C8       3.8105  -1.1785  -0.1667 C.ar    1 ****    -0.0564  
  14 C9       2.4138  -1.1958  -0.1647 C.ar    1 ****    -0.0351  
  15 H1       6.3460  -0.8946   0.6880 H       1 ****    0.0326   
  16 H2       6.5023   0.0735  -0.8176 H       1 ****    0.0326   
  17 H3       4.0681   3.0880   1.0332 H       1 ****    0.0474   
  18 H4       4.3028   3.1791  -0.7416 H       1 ****    0.0474   
  19 H5       5.9531   1.1788   2.0234 H       1 ****    0.0427   
  20 H6       7.5199   1.2443   1.1584 H       1 ****    0.0427   
  21 H7       6.3820   3.3516   0.8010 H       1 ****    0.1223   
  22 H8       1.8487   2.1488  -0.0500 H       1 ****    0.0640   
  23 H9       4.3599  -2.1075  -0.2890 H       1 ****    0.0621   
  24 H10      1.8896  -2.1424  -0.2229 H       1 ****    0.0637   
  25 H11     -1.4373   1.1603  -0.7831 H       1 ****    0.1442   
  26 H12     -0.0255   1.1003  -1.8409 H       1 ****    0.1442   
@<TRIPOS>BOND
   1    1    2 2   
   2    1    3 2   
   3    1    5 1   
   4    1   12 1   
   5    4    9 1   
   6    4   10 1   
   7    4   21 1   
   8    5   25 1   
   9    5   26 1   
  10    6    7 ar  
  11    6    8 1   
  12    6   13 ar  
  13    7    9 1   
  14    7   11 ar  
  15    8   10 1   
  16    8   15 1   
  17    8   16 1   
  18    9   17 1   
  19    9   18 1   
  20   10   19 1   
  21   10   20 1   
  22   11   12 ar  
  23   11   22 1   
  24   12   14 ar  
  25   13   14 ar  
  26   13   23 1   
  27   14   24 1   
@<TRIPOS>SUBSTRUCTURE
1 **** 2 TEMP 0 **** **** 0 ROOT
# Name:		1hnn_7
# Pharmacophore name:		UNK
# Created and modified by GAPS on Mon Jun 23 14:31:31 2008

# 
# Fit value:		0.0000
# Energy:		13.0867kJ/mol

@<TRIPOS>MOLECULE
1hnn_7
26    27        0    
SAMLL
USER_CHARGES

@<TRIPOS>ATOM
   1 S1       0.2089  -0.0600  -0.0534 S.O2    1 ****    0.0560   
   2 O1      -0.3143   1.2261   0.5209 O.2     1 ****    -0.1533  
   3 O2      -0.2628  -1.1711   0.8401 O.2     1 ****    -0.1533  
   4 N1       5.9550   2.4632   0.3407 N.3     1 ****    -0.3117  
   5 N2      -0.3561  -0.2304  -1.4372 N.3     1 ****    -0.2035  
   6 C1       4.5250  -0.0062  -0.0021 C.ar    1 ****    -0.0417  
   7 C2       3.8028   1.1936  -0.0339 C.ar    1 ****    -0.0285  
   8 C3       6.0433   0.0227   0.1938 C.3     1 ****    -0.0148  
   9 C4       4.5011   2.5520   0.0815 C.3     1 ****    0.0216   
  10 C5       6.3954   1.2526   1.0619 C.3     1 ****    0.0002   
  11 C6       2.4108   1.1664  -0.1531 C.ar    1 ****    -0.0307  
  12 C7       1.7174  -0.0460  -0.1103 C.ar    1 ****    0.1053   
  13 C8       3.8398  -1.2206  -0.1282 C.ar    1 ****    -0.0564  
  14 C9       2.4431  -1.2413  -0.1233 C.ar    1 ****    -0.0351  
  15 H1       6.3894  -0.8942   0.6997 H       1 ****    0.0326   
  16 H2       6.5415   0.0947  -0.7867 H       1 ****    0.0326   
  17 H3       3.9981   3.1012   0.8956 H       1 ****    0.0474   
  18 H4       4.3494   3.1044  -0.8596 H       1 ****    0.0474   
  19 H5       5.8955   1.1801   2.0430 H       1 ****    0.0427   
  20 H6       7.4852   1.2915   1.2245 H       1 ****    0.0427   
  21 H7       6.3095   3.3582   0.8409 H       1 ****    0.1223   
  22 H8       1.8652   2.0957  -0.2721 H       1 ****    0.0640   
  23 H9       4.3935  -2.1498  -0.2227 H       1 ****    0.0621   
  24 H10      1.9179  -2.1910  -0.1283 H       1 ****    0.0637   
  25 H11     -1.4343  -0.2884  -1.3890 H       1 ****    0.1442   
  26 H12      0.0321  -1.1296  -1.8935 H       1 ****    0.1442   
@<TRIPOS>BOND
   1    1    2 2   
   2    1    3 2   
   3    1    5 1   
   4    1   12 1   
   5    4    9 1   
   6    4   10 1   
   7    4   21 1   
   8    5   25 1   
   9    5   26 1   
  10    6    7 ar  
  11    6    8 1   
  12    6   13 ar  
  13    7    9 1   
  14    7   11 ar  
  15    8   10 1   
  16    8   15 1   
  17    8   16 1   
  18    9   17 1   
  19    9   18 1   
  20   10   19 1   
  21   10   20 1   
  22   11   12 ar  
  23   11   22 1   
  24   12   14 ar  
  25   13   14 ar  
  26   13   23 1   
  27   14   24 1   
@<TRIPOS>SUBSTRUCTURE
1 **** 2 TEMP 0 **** **** 0 ROOT
# Name:		1hnn_1
# Pharmacophore name:		UNK
# Created and modified by GAPS on Mon Jun 23 14:31:41 2008

# 
# Fit value:		0
# Energy:		12.8311kJ/mol

@<TRIPOS>MOLECULE
1hnn_1
   26    27         0
SAMLL
USER_CHARGES

@<TRIPOS>ATOM
   1 S1       0.1962   0.0342  -0.0003 S.O2    1 ****    0.0560   
   2 O1      -0.1663   0.2849   1.4340 O.2     1 ****    -0.1533  
   3 O2      -0.4311  -1.2537  -0.4519 O.2     1 ****    -0.1533  
   4 N1       5.9772   2.4616   0.3105 N.3     1 ****    -0.3117  
   5 N2      -0.3508   1.1596  -0.8332 N.3     1 ****    -0.2035  
   6 C1       4.4978   0.0260  -0.0003 C.ar    1 ****    -0.0417  
   7 C2       3.7913   1.2330   0.0281 C.ar    1 ****    -0.0285  
   8 C3       6.0158   0.0215   0.1856 C.3     1 ****    -0.0148  
   9 C4       4.5083   2.5804   0.1672 C.3     1 ****    0.0216   
  10 C5       6.4239   1.2499   1.0264 C.3     1 ****    0.0002   
  11 C6       2.3945   1.2121  -0.0495 C.ar    1 ****    -0.0307  
  12 C7       1.7009   0.0014  -0.0843 C.ar    1 ****    0.1053   
  13 C8       3.8122  -1.1782  -0.1761 C.ar    1 ****    -0.0564  
  14 C9       2.4130  -1.1981  -0.1780 C.ar    1 ****    -0.0351  
  15 H1       6.3274  -0.8925   0.7168 H       1 ****    0.0326   
  16 H2       6.5035   0.0492  -0.8020 H       1 ****    0.0326   
  17 H3       4.0760   3.0796   1.0515 H       1 ****    0.0474   
  18 H4       4.2909   3.1944  -0.7226 H       1 ****    0.0474   
  19 H5       5.9544   1.1967   2.0231 H       1 ****    0.0427   
  20 H6       7.5193   1.2483   1.1518 H       1 ****    0.0427   
  21 H7       6.3879   3.3532   0.7732 H       1 ****    0.1223   
  22 H8       1.8447   2.1462  -0.0703 H       1 ****    0.0640   
  23 H9       4.3635  -2.1041  -0.3032 H       1 ****    0.0621   
  24 H10      1.8924  -2.1462  -0.2456 H       1 ****    0.0637   
  25 H11     -1.4304   1.1450  -0.8070 H       1 ****    0.1442   
  26 H12     -0.0114   1.0646  -1.8546 H       1 ****    0.1442   
@<TRIPOS>BOND
   1    1    2 2   
   2    1    3 2   
   3    1    5 1   
   4    1   12 1   
   5    4    9 1   
   6    4   10 1   
   7    4   21 1   
   8    5   25 1   
   9    5   26 1   
  10    6    7 ar  
  11    6    8 1   
  12    6   13 ar  
  13    7    9 1   
  14    7   11 ar  
  15    8   10 1   
  16    8   15 1   
  17    8   16 1   
  18    9   17 1   
  19    9   18 1   
  20   10   19 1   
  21   10   20 1   
  22   11   12 ar  
  23   11   22 1   
  24   12   14 ar  
  25   13   14 ar  
  26   13   23 1   
  27   14   24 1   
@<TRIPOS>SUBSTRUCTURE
1 **** 2 TEMP 0 **** **** 0 ROOT
# Name:		1hnn_3
# Pharmacophore name:		UNK
# Created and modified by GAPS on Mon Jun 23 14:31:41 2008

# 
# Fit value:		0.0000
# Energy:		12.9661kJ/mol

@<TRIPOS>MOLECULE
1hnn_3
26    27        0    
SAMLL
USER_CHARGES

@<TRIPOS>ATOM
   1 S1       0.2071  -0.0569  -0.0612 S.O2    1 ****    0.0560   
   2 O1      -0.3248   1.2159   0.5342 O.2     1 ****    -0.1533  
   3 O2      -0.2554  -1.1852   0.8157 O.2     1 ****    -0.1533  
   4 N1       5.9601   2.4622   0.3428 N.3     1 ****    -0.3117  
   5 N2      -0.3592  -0.2124  -1.4469 N.3     1 ****    -0.2035  
   6 C1       4.5205   0.0027  -0.0013 C.ar    1 ****    -0.0417  
   7 C2       3.8027   1.2033  -0.0279 C.ar    1 ****    -0.0285  
   8 C3       6.0400   0.0192   0.1966 C.3     1 ****    -0.0148  
   9 C4       4.5050   2.5602   0.0900 C.3     1 ****    0.0216   
  10 C5       6.4015   1.2491   1.0604 C.3     1 ****    0.0002   
  11 C6       2.4078   1.1791  -0.1443 C.ar    1 ****    -0.0307  
  12 C7       1.7158  -0.0337  -0.1160 C.ar    1 ****    0.1053   
  13 C8       3.8376  -1.2106  -0.1342 C.ar    1 ****    -0.0564  
  14 C9       2.4393  -1.2302  -0.1402 C.ar    1 ****    -0.0351  
  15 H1       6.3752  -0.8993   0.7085 H       1 ****    0.0326   
  16 H2       6.5403   0.0788  -0.7843 H       1 ****    0.0326   
  17 H3       4.0067   3.1122   0.9061 H       1 ****    0.0474   
  18 H4       4.3547   3.1162  -0.8501 H       1 ****    0.0474   
  19 H5       5.9113   1.1774   2.0467 H       1 ****    0.0427   
  20 H6       7.4931   1.2837   1.2118 H       1 ****    0.0427   
  21 H7       6.3237   3.3557   0.8402 H       1 ****    0.1223   
  22 H8       1.8616   2.1097  -0.2493 H       1 ****    0.0640   
  23 H9       4.3896  -2.1407  -0.2253 H       1 ****    0.0621   
  24 H10      1.9144  -2.1784  -0.1619 H       1 ****    0.0637   
  25 H11     -1.4378  -0.2615  -1.3990 H       1 ****    0.1442   
  26 H12      0.0196  -1.1127  -1.9092 H       1 ****    0.1442   
@<TRIPOS>BOND
   1    1    2 2   
   2    1    3 2   
   3    1    5 1   
   4    1   12 1   
   5    4    9 1   
   6    4   10 1   
   7    4   21 1   
   8    5   25 1   
   9    5   26 1   
  10    6    7 ar  
  11    6    8 1   
  12    6   13 ar  
  13    7    9 1   
  14    7   11 ar  
  15    8   10 1   
  16    8   15 1   
  17    8   16 1   
  18    9   17 1   
  19    9   18 1   
  20   10   19 1   
  21   10   20 1   
  22   11   12 ar  
  23   11   22 1   
  24   12   14 ar  
  25   13   14 ar  
  26   13   23 1   
  27   14   24 1   
@<TRIPOS>SUBSTRUCTURE
1 **** 2 TEMP 0 **** **** 0 ROOT
# Name:		1hnn_8
# Pharmacophore name:		UNK
# Created and modified by GAPS on Mon Jun 23 14:31:41 2008

# 
# Fit value:		0.0000
# Energy:		12.7308kJ/mol

@<TRIPOS>MOLECULE
1hnn_8
26    27        0    
SAMLL
USER_CHARGES

@<TRIPOS>ATOM
   1 S1       0.2051  -0.1296   0.0126 S.O2    1 ****    0.0560   
   2 O1      -0.3459  -0.2765  -1.3737 O.2     1 ****    -0.1533  
   3 O2      -0.3436   1.1297   0.6210 O.2     1 ****    -0.1533  
   4 N1       5.9408   2.4435   0.3106 N.3     1 ****    -0.3117  
   5 N2      -0.2324  -1.2931   0.8646 N.3     1 ****    -0.2035  
   6 C1       4.4991  -0.0062   0.0064 C.ar    1 ****    -0.0417  
   7 C2       3.7739   1.1885   0.0127 C.ar    1 ****    -0.0285  
   8 C3       6.0132   0.0147   0.2251 C.3     1 ****    -0.0148  
   9 C4       4.4732   2.5457   0.1531 C.3     1 ****    0.0216   
  10 C5       6.3775   1.2552   1.0697 C.3     1 ****    0.0002   
  11 C6       2.3797   1.1515  -0.0867 C.ar    1 ****    -0.0307  
  12 C7       1.7060  -0.0740  -0.1071 C.ar    1 ****    0.1053   
  13 C8       3.8357  -1.2242  -0.1830 C.ar    1 ****    -0.0564  
  14 C9       2.4389  -1.2542  -0.2468 C.ar    1 ****    -0.0351  
  15 H1       6.3389  -0.8995   0.7475 H       1 ****    0.0326   
  16 H2       6.5110   0.0599  -0.7567 H       1 ****    0.0326   
  17 H3       4.0269   3.0295   1.0364 H       1 ****    0.0474   
  18 H4       4.2554   3.1593  -0.7348 H       1 ****    0.0474   
  19 H5       5.8799   1.2083   2.0534 H       1 ****    0.0427   
  20 H6       7.4678   1.2702   1.2255 H       1 ****    0.0427   
  21 H7       6.3493   3.3539   0.7382 H       1 ****    0.1223   
  22 H8       1.8158   2.0745  -0.1429 H       1 ****    0.0640   
  23 H9       4.4020  -2.1465  -0.2730 H       1 ****    0.0621   
  24 H10      1.9191  -2.1941  -0.4033 H       1 ****    0.0637   
  25 H11     -1.3118  -1.3365   0.8934 H       1 ****    0.1442   
  26 H12      0.1458  -1.1819   1.8723 H       1 ****    0.1442   
@<TRIPOS>BOND
   1    1    2 2   
   2    1    3 2   
   3    1    5 1   
   4    1   12 1   
   5    4    9 1   
   6    4   10 1   
   7    4   21 1   
   8    5   25 1   
   9    5   26 1   
  10    6    7 ar  
  11    6    8 1   
  12    6   13 ar  
  13    7    9 1   
  14    7   11 ar  
  15    8   10 1   
  16    8   15 1   
  17    8   16 1   
  18    9   17 1   
  19    9   18 1   
  20   10   19 1   
  21   10   20 1   
  22   11   12 ar  
  23   11   22 1   
  24   12   14 ar  
  25   13   14 ar  
  26   13   23 1   
  27   14   24 1   
@<TRIPOS>SUBSTRUCTURE
1 **** 2 TEMP 0 **** **** 0 ROOT
# Name:		1hnn_7
# Pharmacophore name:		UNK
# Created and modified by GAPS on Mon Jun 23 14:33:08 2008

# 
# Fit value:		0
# Energy:		11.7953kJ/mol

@<TRIPOS>MOLECULE
1hnn_7
   26    27         0
SAMLL
USER_CHARGES

@<TRIPOS>ATOM
   1 S1       0.0401  -0.0423  -0.0076 S.o2    1 ****    0.0560   
   2 O1      -0.4533   1.2794   0.3285 O.2     1 ****    -0.1533  
   3 O2      -0.2851  -1.1377   0.8872 O.2     1 ****    -0.1533  
   4 N1       6.0395   2.4424   0.2523 N.3     1 ****    -0.3117  
   5 N2      -0.5766  -0.4322  -1.5445 N.3     1 ****    -0.2035  
   6 C1       4.5468   0.0386   0.0233 C.ar    1 ****    -0.0417  
   7 C2       3.8424   1.2502   0.0250 C.ar    1 ****    -0.0285  
   8 C3       6.0594   0.0048   0.2479 C.3     1 ****    -0.0148  
   9 C4       4.5692   2.5942   0.1673 C.3     1 ****    0.0216   
  10 C5       6.4538   1.2665   1.0457 C.3     1 ****    0.0002   
  11 C6       2.4465   1.2399  -0.0773 C.ar    1 ****    -0.0307  
  12 C7       1.7543   0.0259  -0.1175 C.ar    1 ****    0.1053   
  13 C8       3.8627  -1.1663  -0.1577 C.ar    1 ****    -0.0564  
  14 C9       2.4692  -1.1686  -0.2320 C.ar    1 ****    -0.0351  
  15 H1       6.3307  -0.8977   0.8204 H       1 ****    0.0326   
  16 H2       6.5823  -0.0314  -0.7211 H       1 ****    0.0326   
  17 H3       4.1943   3.0629   1.0927 H       1 ****    0.0474   
  18 H4       4.3048   3.2448  -0.6836 H       1 ****    0.0474   
  19 H5       5.9447   1.2535   2.0253 H       1 ****    0.0427   
  20 H6       7.5425   1.2732   1.2176 H       1 ****    0.0427   
  21 H7       6.4936   3.3466   0.6453 H       1 ****    0.1223   
  22 H8       1.9002   2.1767  -0.1120 H       1 ****    0.0640   
  23 H9       4.4084  -2.1021  -0.2283 H       1 ****    0.0621   
  24 H10      1.9416  -2.1045  -0.3689 H       1 ****    0.0637   
  25 H11     -1.6459  -0.5737  -1.4772 H       1 ****    0.1442   
  26 H12     -0.1140  -1.3358  -1.9141 H       1 ****    0.1442   
@<TRIPOS>BOND
   1    1    2 2   
   2    1    3 2   
   3    1    5 1   
   4    1   12 1   
   5    4    9 1   
   6    4   10 1   
   7    4   21 1   
   8    5   25 1   
   9    5   26 1   
  10    6    7 ar  
  11    6    8 1   
  12    6   13 ar  
  13    7    9 1   
  14    7   11 ar  
  15    8   10 1   
  16    8   15 1   
  17    8   16 1   
  18    9   17 1   
  19    9   18 1   
  20   10   19 1   
  21   10   20 1   
  22   11   12 ar  
  23   11   22 1   
  24   12   14 ar  
  25   13   14 ar  
  26   13   23 1   
  27   14   24 1   
@<TRIPOS>SUBSTRUCTURE
1 **** 2 TEMP 0 **** **** 0 ROOT
# Name:		1hnn_9
# Pharmacophore name:		UNK
# Created and modified by GAPS on Mon Jun 23 14:33:08 2008

# 
# Fit value:		0.0000
# Energy:		11.4976kJ/mol

@<TRIPOS>MOLECULE
1hnn_9
26    27        0    
SAMLL
USER_CHARGES

@<TRIPOS>ATOM
   1 S1       0.0418  -0.0368   0.0761 S.o2    1 ****    0.0560   
   2 O1      -0.2602   0.0973   1.4879 O.2     1 ****    -0.1533  
   3 O2      -0.4769  -1.1898  -0.6338 O.2     1 ****    -0.1533  
   4 N1       6.0086   2.4433   0.2705 N.3     1 ****    -0.3117  
   5 N2      -0.5457   1.3592  -0.6991 N.3     1 ****    -0.2035  
   6 C1       4.5478   0.0077   0.0159 C.ar    1 ****    -0.0417  
   7 C2       3.8304   1.2106   0.0461 C.ar    1 ****    -0.0285  
   8 C3       6.0650   0.0186   0.2268 C.3     1 ****    -0.0148  
   9 C4       4.5377   2.5627   0.1923 C.3     1 ****    0.0216   
  10 C5       6.4544   1.2702   1.0458 C.3     1 ****    0.0002   
  11 C6       2.4354   1.1840  -0.0386 C.ar    1 ****    -0.0307  
  12 C7       1.7517  -0.0347  -0.0682 C.ar    1 ****    0.1053   
  13 C8       3.8694  -1.1979  -0.1892 C.ar    1 ****    -0.0564  
  14 C9       2.4711  -1.2249  -0.1979 C.ar    1 ****    -0.0351  
  15 H1       6.3859  -0.8893   0.7625 H       1 ****    0.0326   
  16 H2       6.5597   0.0466  -0.7563 H       1 ****    0.0326   
  17 H3       4.1465   3.0373   1.1074 H       1 ****    0.0474   
  18 H4       4.2841   3.1952  -0.6724 H       1 ****    0.0474   
  19 H5       5.9686   1.2484   2.0366 H       1 ****    0.0427   
  20 H6       7.5468   1.2947   1.1915 H       1 ****    0.0427   
  21 H7       6.4483   3.3563   0.6565 H       1 ****    0.1223   
  22 H8       1.8803   2.1149  -0.0698 H       1 ****    0.0640   
  23 H9       4.4276  -2.1178  -0.3347 H       1 ****    0.0621   
  24 H10      1.9500  -2.1718  -0.2990 H       1 ****    0.0637   
  25 H11     -1.6248   1.3739  -0.6534 H       1 ****    0.1442   
  26 H12     -0.2251   1.3664  -1.7301 H       1 ****    0.1442   
@<TRIPOS>BOND
   1    1    2 2   
   2    1    3 2   
   3    1    5 1   
   4    1   12 1   
   5    4    9 1   
   6    4   10 1   
   7    4   21 1   
   8    5   25 1   
   9    5   26 1   
  10    6    7 ar  
  11    6    8 1   
  12    6   13 ar  
  13    7    9 1   
  14    7   11 ar  
  15    8   10 1   
  16    8   15 1   
  17    8   16 1   
  18    9   17 1   
  19    9   18 1   
  20   10   19 1   
  21   10   20 1   
  22   11   12 ar  
  23   11   22 1   
  24   12   14 ar  
  25   13   14 ar  
  26   13   23 1   
  27   14   24 1   
@<TRIPOS>SUBSTRUCTURE
1 **** 2 TEMP 0 **** **** 0 ROOT
# Name:		1hnn_11
# Pharmacophore name:		UNK
# Created and modified by GAPS on Mon Jun 23 14:33:08 2008

# 
# Fit value:		0.0000
# Energy:		11.4112kJ/mol

@<TRIPOS>MOLECULE
1hnn_11
26    27        0    
SAMLL
USER_CHARGES

@<TRIPOS>ATOM
   1 S1       0.0143  -0.0669  -0.0422 S.o2    1 ****    0.0560   
   2 O1      -0.4903  -0.3398  -1.3736 O.2     1 ****    -0.1533  
   3 O2      -0.4494   1.1223   0.6478 O.2     1 ****    -0.1533  
   4 N1       6.0089   2.4389   0.2847 N.3     1 ****    -0.3117  
   5 N2      -0.3618  -1.4099   0.9347 N.3     1 ****    -0.2035  
   6 C1       4.5149   0.0275   0.0237 C.ar    1 ****    -0.0417  
   7 C2       3.8078   1.2371   0.0123 C.ar    1 ****    -0.0285  
   8 C3       6.0248   0.0036   0.2750 C.3     1 ****    -0.0148  
   9 C4       4.5413   2.5763   0.1595 C.3     1 ****    0.0216   
  10 C5       6.4504   1.2639   1.0601 C.3     1 ****    0.0002   
  11 C6       2.4136   1.2199  -0.1211 C.ar    1 ****    -0.0307  
  12 C7       1.7249   0.0041  -0.1407 C.ar    1 ****    0.1053   
  13 C8       3.8347  -1.1761  -0.1852 C.ar    1 ****    -0.0564  
  14 C9       2.4396  -1.1931  -0.2321 C.ar    1 ****    -0.0351  
  15 H1       6.2997  -0.8961   0.8505 H       1 ****    0.0326   
  16 H2       6.5388  -0.0247  -0.6990 H       1 ****    0.0326   
  17 H3       4.1272   3.0882   1.0444 H       1 ****    0.0474   
  18 H4       4.3399   3.1920  -0.7313 H       1 ****    0.0474   
  19 H5       5.9984   1.2643   2.0667 H       1 ****    0.0427   
  20 H6       7.5484   1.2719   1.1663 H       1 ****    0.0427   
  21 H7       6.4453   3.3479   0.6842 H       1 ****    0.1223   
  22 H8       1.8654   2.1532  -0.2013 H       1 ****    0.0640   
  23 H9       4.3872  -2.1028  -0.3049 H       1 ****    0.0621   
  24 H10      1.9115  -2.1353  -0.3340 H       1 ****    0.0637   
  25 H11     -1.4309  -1.5571   0.9623 H       1 ****    0.1442   
  26 H12      0.0062  -1.2464   1.9375 H       1 ****    0.1442   
@<TRIPOS>BOND
   1    1    2 2   
   2    1    3 2   
   3    1    5 1   
   4    1   12 1   
   5    4    9 1   
   6    4   10 1   
   7    4   21 1   
   8    5   25 1   
   9    5   26 1   
  10    6    7 ar  
  11    6    8 1   
  12    6   13 ar  
  13    7    9 1   
  14    7   11 ar  
  15    8   10 1   
  16    8   15 1   
  17    8   16 1   
  18    9   17 1   
  19    9   18 1   
  20   10   19 1   
  21   10   20 1   
  22   11   12 ar  
  23   11   22 1   
  24   12   14 ar  
  25   13   14 ar  
  26   13   23 1   
  27   14   24 1   
@<TRIPOS>SUBSTRUCTURE
1 **** 2 TEMP 0 **** **** 0 ROOT
# Name:		1hnn_1
# Pharmacophore name:		UNK
# Created and modified by GAPS on Mon Jun 23 14:36:09 2008

# 
# Fit value:		0
# Energy:		12.8077kJ/mol

@<TRIPOS>MOLECULE
1hnn_1
   26    27         0
SAMLL
USER_CHARGES

@<TRIPOS>ATOM
   1 S1       0.1997  -0.1281   0.0156 S.O2    1 ****    0.0560   
   2 O1      -0.3273  -0.3305  -1.3731 O.2     1 ****    -0.1533  
   3 O2      -0.3846   1.1354   0.5817 O.2     1 ****    -0.1533  
   4 N1       5.9459   2.4422   0.3359 N.3     1 ****    -0.3117  
   5 N2      -0.2259  -1.2732   0.8960 N.3     1 ****    -0.2035  
   6 C1       4.4988   0.0018  -0.0030 C.ar    1 ****    -0.0417  
   7 C2       3.7732   1.1996   0.0040 C.ar    1 ****    -0.0285  
   8 C3       6.0145   0.0188   0.2024 C.3     1 ****    -0.0148  
   9 C4       4.4839   2.5528   0.1301 C.3     1 ****    0.0216   
  10 C5       6.3760   1.2386   1.0753 C.3     1 ****    0.0002   
  11 C6       2.3761   1.1601  -0.0808 C.ar    1 ****    -0.0307  
  12 C7       1.7022  -0.0634  -0.0900 C.ar    1 ****    0.1053   
  13 C8       3.8314  -1.2139  -0.1771 C.ar    1 ****    -0.0564  
  14 C9       2.4349  -1.2468  -0.2089 C.ar    1 ****    -0.0351  
  15 H1       6.3486  -0.9040   0.7035 H       1 ****    0.0326   
  16 H2       6.5111   0.0935  -0.7775 H       1 ****    0.0326   
  17 H3       4.0227   3.0597   0.9912 H       1 ****    0.0474   
  18 H4       4.2937   3.1520  -0.7746 H       1 ****    0.0474   
  19 H5       5.8695   1.1709   2.0535 H       1 ****    0.0427   
  20 H6       7.4657   1.2502   1.2443 H       1 ****    0.0427   
  21 H7       6.3398   3.3399   0.7982 H       1 ****    0.1223   
  22 H8       1.8111   2.0838  -0.1345 H       1 ****    0.0640   
  23 H9       4.3963  -2.1346  -0.2806 H       1 ****    0.0621   
  24 H10      1.9172  -2.1929  -0.3258 H       1 ****    0.0637   
  25 H11     -1.3045  -1.3320   0.9218 H       1 ****    0.1442   
  26 H12      0.1471  -1.1281   1.9010 H       1 ****    0.1442   
@<TRIPOS>BOND
   1    1    2 2   
   2    1    3 2   
   3    1    5 1   
   4    1   12 1   
   5    4    9 1   
   6    4   10 1   
   7    4   21 1   
   8    5   25 1   
   9    5   26 1   
  10    6    7 ar  
  11    6    8 1   
  12    6   13 ar  
  13    7    9 1   
  14    7   11 ar  
  15    8   10 1   
  16    8   15 1   
  17    8   16 1   
  18    9   17 1   
  19    9   18 1   
  20   10   19 1   
  21   10   20 1   
  22   11   12 ar  
  23   11   22 1   
  24   12   14 ar  
  25   13   14 ar  
  26   13   23 1   
  27   14   24 1   
@<TRIPOS>SUBSTRUCTURE
1 **** 2 TEMP 0 **** **** 0 ROOT
# Name:		1hnn_5
# Pharmacophore name:		UNK
# Created and modified by GAPS on Mon Jun 23 14:36:09 2008

# 
# Fit value:		0.0000
# Energy:		12.8293kJ/mol

@<TRIPOS>MOLECULE
1hnn_5
26    27        0    
SAMLL
USER_CHARGES

@<TRIPOS>ATOM
   1 S1       0.1886   0.0232  -0.0288 S.O2    1 ****    0.0560   
   2 O1      -0.2361   0.5642   1.3057 O.2     1 ****    -0.1533  
   3 O2      -0.4112  -1.3438  -0.1855 O.2     1 ****    -0.1533  
   4 N1       5.9786   2.4730   0.3696 N.3     1 ****    -0.3117  
   5 N2      -0.3440   0.9160  -1.1158 N.3     1 ****    -0.2035  
   6 C1       4.4949   0.0326   0.0038 C.ar    1 ****    -0.0417  
   7 C2       3.7864   1.2384   0.0313 C.ar    1 ****    -0.0285  
   8 C3       6.0129   0.0293   0.1809 C.3     1 ****    -0.0148  
   9 C4       4.5195   2.5842   0.1496 C.3     1 ****    0.0216   
  10 C5       6.4384   1.2416   1.0385 C.3     1 ****    0.0002   
  11 C6       2.3889   1.2088  -0.0416 C.ar    1 ****    -0.0307  
  12 C7       1.6959  -0.0046  -0.0805 C.ar    1 ****    0.1053   
  13 C8       3.8113  -1.1757  -0.1728 C.ar    1 ****    -0.0564  
  14 C9       2.4151  -1.2007  -0.1646 C.ar    1 ****    -0.0351  
  15 H1       6.3290  -0.8969   0.6848 H       1 ****    0.0326   
  16 H2       6.4858   0.0766  -0.8111 H       1 ****    0.0326   
  17 H3       4.0398   3.1618   0.9553 H       1 ****    0.0474   
  18 H4       4.3899   3.1286  -0.7960 H       1 ****    0.0474   
  19 H5       6.0077   1.1616   2.0501 H       1 ****    0.0427   
  20 H6       7.5381   1.2529   1.1196 H       1 ****    0.0427   
  21 H7       6.3700   3.3550   0.8639 H       1 ****    0.1223   
  22 H8       1.8217   2.1321  -0.0652 H       1 ****    0.0640   
  23 H9       4.3661  -2.0980  -0.3123 H       1 ****    0.0621   
  24 H10      1.8977  -2.1516  -0.2221 H       1 ****    0.0637   
  25 H11     -1.4236   0.9278  -1.0831 H       1 ****    0.1442   
  26 H12     -0.0204   0.5578  -2.0826 H       1 ****    0.1442   
@<TRIPOS>BOND
   1    1    2 2   
   2    1    3 2   
   3    1    5 1   
   4    1   12 1   
   5    4    9 1   
   6    4   10 1   
   7    4   21 1   
   8    5   25 1   
   9    5   26 1   
  10    6    7 ar  
  11    6    8 1   
  12    6   13 ar  
  13    7    9 1   
  14    7   11 ar  
  15    8   10 1   
  16    8   15 1   
  17    8   16 1   
  18    9   17 1   
  19    9   18 1   
  20   10   19 1   
  21   10   20 1   
  22   11   12 ar  
  23   11   22 1   
  24   12   14 ar  
  25   13   14 ar  
  26   13   23 1   
  27   14   24 1   
@<TRIPOS>SUBSTRUCTURE
1 **** 2 TEMP 0 **** **** 0 ROOT
# Name:		1hnn_10
# Pharmacophore name:		UNK
# Created and modified by GAPS on Mon Jun 23 14:36:09 2008

# 
# Fit value:		0.0000
# Energy:		13.4688kJ/mol

@<TRIPOS>MOLECULE
1hnn_10
26    27        0    
SAMLL
USER_CHARGES

@<TRIPOS>ATOM
   1 S1       0.1767  -0.1131   0.0289 S.O2    1 ****    0.0560   
   2 O1      -0.2819  -0.9843  -1.1044 O.2     1 ****    -0.1533  
   3 O2      -0.4702   1.2326  -0.1311 O.2     1 ****    -0.1533  
   4 N1       5.9490   2.4777   0.4611 N.3     1 ****    -0.3117  
   5 N2      -0.2681  -0.7379   1.3262 N.3     1 ****    -0.2035  
   6 C1       4.4914   0.0192   0.0158 C.ar    1 ****    -0.0417  
   7 C2       3.7737   1.2209   0.0326 C.ar    1 ****    -0.0285  
   8 C3       6.0155   0.0450   0.1264 C.3     1 ****    -0.0148  
   9 C4       4.5125   2.5669   0.1045 C.3     1 ****    0.0216   
  10 C5       6.4280   1.2125   1.0514 C.3     1 ****    0.0002   
  11 C6       2.3746   1.1898  -0.0152 C.ar    1 ****    -0.0307  
  12 C7       1.6856  -0.0300  -0.0119 C.ar    1 ****    0.1053   
  13 C8       3.8070  -1.1981  -0.0938 C.ar    1 ****    -0.0564  
  14 C9       2.4117  -1.2200  -0.0469 C.ar    1 ****    -0.0351  
  15 H1       6.3992  -0.9060   0.5325 H       1 ****    0.0326   
  16 H2       6.4340   0.1951  -0.8812 H       1 ****    0.0326   
  17 H3       3.9767   3.2276   0.8072 H       1 ****    0.0474   
  18 H4       4.4633   3.0200  -0.8981 H       1 ****    0.0474   
  19 H5       6.0140   1.0706   2.0644 H       1 ****    0.0427   
  20 H6       7.5280   1.2463   1.1221 H       1 ****    0.0427   
  21 H7       6.2619   3.3260   1.0618 H       1 ****    0.1223   
  22 H8       1.8234   2.1223  -0.0543 H       1 ****    0.0640   
  23 H9       4.3576  -2.1251  -0.2133 H       1 ****    0.0621   
  24 H10      1.8848  -2.1696  -0.0376 H       1 ****    0.0637   
  25 H11     -1.3434  -0.8509   1.3347 H       1 ****    0.1442   
  26 H12      0.0346  -0.1236   2.1623 H       1 ****    0.1442   
@<TRIPOS>BOND
   1    1    2 2   
   2    1    3 2   
   3    1    5 1   
   4    1   12 1   
   5    4    9 1   
   6    4   10 1   
   7    4   21 1   
   8    5   25 1   
   9    5   26 1   
  10    6    7 ar  
  11    6    8 1   
  12    6   13 ar  
  13    7    9 1   
  14    7   11 ar  
  15    8   10 1   
  16    8   15 1   
  17    8   16 1   
  18    9   17 1   
  19    9   18 1   
  20   10   19 1   
  21   10   20 1   
  22   11   12 ar  
  23   11   22 1   
  24   12   14 ar  
  25   13   14 ar  
  26   13   23 1   
  27   14   24 1   
@<TRIPOS>SUBSTRUCTURE
1 **** 2 TEMP 0 **** **** 0 ROOT
# Name:		1hnn_4
# Pharmacophore name:		UNK
# Created and modified by GAPS on Mon Jun 23 14:44:13 2008

# 
# Fit value:		0
# Energy:		11.4774kJ/mol

@<TRIPOS>MOLECULE
1hnn_4
   26    27         0
SAMLL
USER_CHARGES

@<TRIPOS>ATOM
   1 S1       0.0173  -0.0675  -0.0624 S.o2    1 ****    0.0560   
   2 O1      -0.4399  -0.9189  -1.1442 O.2     1 ****    -0.1533  
   3 O2      -0.4717   1.2976  -0.0036 O.2     1 ****    -0.1533  
   4 N1       5.9987   2.4431   0.2530 N.3     1 ****    -0.3117  
   5 N2      -0.4309  -0.8061   1.4029 N.3     1 ****    -0.2035  
   6 C1       4.5332   0.0011   0.0440 C.ar    1 ****    -0.0417  
   7 C2       3.8172   1.2045   0.0320 C.ar    1 ****    -0.0285  
   8 C3       6.0559   0.0269   0.2180 C.3     1 ****    -0.0148  
   9 C4       4.5284   2.5590   0.1526 C.3     1 ****    0.0216   
  10 C5       6.4410   1.2765   1.0407 C.3     1 ****    0.0002   
  11 C6       2.4230   1.1833  -0.0740 C.ar    1 ****    -0.0307  
  12 C7       1.7371  -0.0346  -0.1140 C.ar    1 ****    0.1053   
  13 C8       3.8517  -1.2140  -0.0890 C.ar    1 ****    -0.0564  
  14 C9       2.4569  -1.2318  -0.1851 C.ar    1 ****    -0.0351  
  15 H1       6.4142  -0.8782   0.7347 H       1 ****    0.0326   
  16 H2       6.5271   0.0808  -0.7768 H       1 ****    0.0326   
  17 H3       4.1272   3.0582   1.0493 H       1 ****    0.0474   
  18 H4       4.2869   3.1724  -0.7291 H       1 ****    0.0474   
  19 H5       5.9387   1.2541   2.0224 H       1 ****    0.0427   
  20 H6       7.5310   1.2988   1.2088 H       1 ****    0.0427   
  21 H7       6.4339   3.3599   0.6339 H       1 ****    0.1223   
  22 H8       1.8780   2.1219  -0.1184 H       1 ****    0.0640   
  23 H9       4.4049  -2.1474  -0.1133 H       1 ****    0.0621   
  24 H10      1.9338  -2.1748  -0.3127 H       1 ****    0.0637   
  25 H11     -1.5084  -0.8467   1.4665 H       1 ****    0.1442   
  26 H12     -0.0487  -0.2259   2.2313 H       1 ****    0.1442   
@<TRIPOS>BOND
   1    1    2 2   
   2    1    3 2   
   3    1    5 1   
   4    1   12 1   
   5    4    9 1   
   6    4   10 1   
   7    4   21 1   
   8    5   25 1   
   9    5   26 1   
  10    6    7 ar  
  11    6    8 1   
  12    6   13 ar  
  13    7    9 1   
  14    7   11 ar  
  15    8   10 1   
  16    8   15 1   
  17    8   16 1   
  18    9   17 1   
  19    9   18 1   
  20   10   19 1   
  21   10   20 1   
  22   11   12 ar  
  23   11   22 1   
  24   12   14 ar  
  25   13   14 ar  
  26   13   23 1   
  27   14   24 1   
@<TRIPOS>SUBSTRUCTURE
1 **** 2 TEMP 0 **** **** 0 ROOT
# Name:		1hnn_7
# Pharmacophore name:		UNK
# Created and modified by GAPS on Mon Jun 23 14:44:13 2008

# 
# Fit value:		0.0000
# Energy:		11.4539kJ/mol

@<TRIPOS>MOLECULE
1hnn_7
26    27        0    
SAMLL
USER_CHARGES

@<TRIPOS>ATOM
   1 S1       0.0395  -0.0555   0.0369 S.o2    1 ****    0.0560   
   2 O1      -0.3051   0.0854   1.4390 O.2     1 ****    -0.1533  
   3 O2      -0.4402  -1.2183  -0.6851 O.2     1 ****    -0.1533  
   4 N1       6.0225   2.4395   0.2177 N.3     1 ****    -0.3117  
   5 N2      -0.5533   1.3095  -0.7768 N.3     1 ****    -0.2035  
   6 C1       4.5372   0.0242   0.0406 C.ar    1 ****    -0.0417  
   7 C2       3.8266   1.2326   0.0691 C.ar    1 ****    -0.0285  
   8 C3       6.0557   0.0064   0.2246 C.3     1 ****    -0.0148  
   9 C4       4.5512   2.5825   0.2046 C.3     1 ****    0.0216   
  10 C5       6.4712   1.2732   1.0017 C.3     1 ****    0.0002   
  11 C6       2.4293   1.2036  -0.0021 C.ar    1 ****    -0.0307  
  12 C7       1.7487  -0.0164  -0.0683 C.ar    1 ****    0.1053   
  13 C8       3.8603  -1.1875  -0.1302 C.ar    1 ****    -0.0564  
  14 C9       2.4667  -1.2071  -0.2005 C.ar    1 ****    -0.0351  
  15 H1       6.3482  -0.8918   0.7946 H       1 ****    0.0326   
  16 H2       6.5423  -0.0182  -0.7635 H       1 ****    0.0326   
  17 H3       4.2349   3.0442   1.1541 H       1 ****    0.0474   
  18 H4       4.2488   3.2458  -0.6220 H       1 ****    0.0474   
  19 H5       5.9881   1.2639   1.9928 H       1 ****    0.0427   
  20 H6       7.5643   1.2962   1.1406 H       1 ****    0.0427   
  21 H7       6.4873   3.3449   0.5906 H       1 ****    0.1223   
  22 H8       1.8695   2.1333   0.0076 H       1 ****    0.0640   
  23 H9       4.4130  -2.1199  -0.1958 H       1 ****    0.0621   
  24 H10      1.9505  -2.1490  -0.3470 H       1 ****    0.0637   
  25 H11     -1.6322   1.3105  -0.7286 H       1 ****    0.1442   
  26 H12     -0.2382   1.2676  -1.8091 H       1 ****    0.1442   
@<TRIPOS>BOND
   1    1    2 2   
   2    1    3 2   
   3    1    5 1   
   4    1   12 1   
   5    4    9 1   
   6    4   10 1   
   7    4   21 1   
   8    5   25 1   
   9    5   26 1   
  10    6    7 ar  
  11    6    8 1   
  12    6   13 ar  
  13    7    9 1   
  14    7   11 ar  
  15    8   10 1   
  16    8   15 1   
  17    8   16 1   
  18    9   17 1   
  19    9   18 1   
  20   10   19 1   
  21   10   20 1   
  22   11   12 ar  
  23   11   22 1   
  24   12   14 ar  
  25   13   14 ar  
  26   13   23 1   
  27   14   24 1   
@<TRIPOS>SUBSTRUCTURE
1 **** 2 TEMP 0 **** **** 0 ROOT
# Name:		1hnn_8
# Pharmacophore name:		UNK
# Created and modified by GAPS on Mon Jun 23 14:44:13 2008

# 
# Fit value:		0.0000
# Energy:		11.3448kJ/mol

@<TRIPOS>MOLECULE
1hnn_8
26    27        0    
SAMLL
USER_CHARGES

@<TRIPOS>ATOM
   1 S1       0.0328  -0.0578  -0.0366 S.o2    1 ****    0.0560   
   2 O1      -0.4736  -0.3767  -1.3563 O.2     1 ****    -0.1533  
   3 O2      -0.4062   1.1676   0.6049 O.2     1 ****    -0.1533  
   4 N1       6.0000   2.4398   0.2327 N.3     1 ****    -0.3117  
   5 N2      -0.3854  -1.3429   0.9952 N.3     1 ****    -0.2035  
   6 C1       4.5257   0.0113   0.0354 C.ar    1 ****    -0.0417  
   7 C2       3.8164   1.2188   0.0214 C.ar    1 ****    -0.0285  
   8 C3       6.0367   0.0028   0.2735 C.3     1 ****    -0.0148  
   9 C4       4.5293   2.5690   0.1529 C.3     1 ****    0.0216   
  10 C5       6.4310   1.2822   1.0408 C.3     1 ****    0.0002   
  11 C6       2.4234   1.2013  -0.0954 C.ar    1 ****    -0.0307  
  12 C7       1.7406  -0.0166  -0.1368 C.ar    1 ****    0.1053   
  13 C8       3.8491  -1.1975  -0.1543 C.ar    1 ****    -0.0564  
  14 C9       2.4558  -1.2103  -0.2525 C.ar    1 ****    -0.0351  
  15 H1       6.3292  -0.8837   0.8602 H       1 ****    0.0326   
  16 H2       6.5511  -0.0270  -0.6992 H       1 ****    0.0326   
  17 H3       4.1392   3.0503   1.0644 H       1 ****    0.0474   
  18 H4       4.2690   3.1992  -0.7117 H       1 ****    0.0474   
  19 H5       5.9239   1.2912   2.0198 H       1 ****    0.0427   
  20 H6       7.5215   1.2941   1.2042 H       1 ****    0.0427   
  21 H7       6.4394   3.3561   0.6110 H       1 ****    0.1223   
  22 H8       1.8720   2.1343  -0.1459 H       1 ****    0.0640   
  23 H9       4.4024  -2.1288  -0.2197 H       1 ****    0.0621   
  24 H10      1.9316  -2.1458  -0.4146 H       1 ****    0.0637   
  25 H11     -1.4606  -1.4205   1.0496 H       1 ****    0.1442   
  26 H12      0.0062  -1.1536   1.9837 H       1 ****    0.1442   
@<TRIPOS>BOND
   1    1    2 2   
   2    1    3 2   
   3    1    5 1   
   4    1   12 1   
   5    4    9 1   
   6    4   10 1   
   7    4   21 1   
   8    5   25 1   
   9    5   26 1   
  10    6    7 ar  
  11    6    8 1   
  12    6   13 ar  
  13    7    9 1   
  14    7   11 ar  
  15    8   10 1   
  16    8   15 1   
  17    8   16 1   
  18    9   17 1   
  19    9   18 1   
  20   10   19 1   
  21   10   20 1   
  22   11   12 ar  
  23   11   22 1   
  24   12   14 ar  
  25   13   14 ar  
  26   13   23 1   
  27   14   24 1   
@<TRIPOS>SUBSTRUCTURE
1 **** 2 TEMP 0 **** **** 0 ROOT
# Name:		1hnn_12
# Pharmacophore name:		UNK
# Created and modified by GAPS on Mon Jun 23 14:44:13 2008

# 
# Fit value:		0.0000
# Energy:		11.5681kJ/mol

@<TRIPOS>MOLECULE
1hnn_12
26    27        0    
SAMLL
USER_CHARGES

@<TRIPOS>ATOM
   1 S1       0.0370  -0.0364  -0.0057 S.o2    1 ****    0.0560   
   2 O1      -0.4305   1.2630   0.4370 O.2     1 ****    -0.1533  
   3 O2      -0.3180  -1.1953   0.7920 O.2     1 ****    -0.1533  
   4 N1       6.0381   2.4441   0.2766 N.3     1 ****    -0.3117  
   5 N2      -0.5771  -0.2870  -1.5709 N.3     1 ****    -0.2035  
   6 C1       4.5493   0.0319   0.0206 C.ar    1 ****    -0.0417  
   7 C2       3.8428   1.2404   0.0253 C.ar    1 ****    -0.0285  
   8 C3       6.0634   0.0172   0.2425 C.3     1 ****    -0.0148  
   9 C4       4.5701   2.5834   0.1642 C.3     1 ****    0.0216   
  10 C5       6.4594   1.2665   1.0593 C.3     1 ****    0.0002   
  11 C6       2.4461   1.2255  -0.0764 C.ar    1 ****    -0.0307  
  12 C7       1.7539   0.0126  -0.1063 C.ar    1 ****    0.1053   
  13 C8       3.8666  -1.1715  -0.1674 C.ar    1 ****    -0.0564  
  14 C9       2.4693  -1.1840  -0.2086 C.ar    1 ****    -0.0351  
  15 H1       6.3562  -0.8933   0.7900 H       1 ****    0.0326   
  16 H2       6.5727   0.0206  -0.7337 H       1 ****    0.0326   
  17 H3       4.1748   3.0729   1.0685 H       1 ****    0.0474   
  18 H4       4.3349   3.2148  -0.7063 H       1 ****    0.0474   
  19 H5       5.9554   1.2519   2.0406 H       1 ****    0.0427   
  20 H6       7.5504   1.2729   1.2214 H       1 ****    0.0427   
  21 H7       6.4740   3.3479   0.6839 H       1 ****    0.1223   
  22 H8       1.9031   2.1640  -0.1227 H       1 ****    0.0640   
  23 H9       4.4163  -2.1018  -0.2736 H       1 ****    0.0621   
  24 H10      1.9434  -2.1258  -0.3135 H       1 ****    0.0637   
  25 H11     -1.6520  -0.3827  -1.5229 H       1 ****    0.1442   
  26 H12     -0.1540  -1.1873  -1.9921 H       1 ****    0.1442   
@<TRIPOS>BOND
   1    1    2 2   
   2    1    3 2   
   3    1    5 1   
   4    1   12 1   
   5    4    9 1   
   6    4   10 1   
   7    4   21 1   
   8    5   25 1   
   9    5   26 1   
  10    6    7 ar  
  11    6    8 1   
  12    6   13 ar  
  13    7    9 1   
  14    7   11 ar  
  15    8   10 1   
  16    8   15 1   
  17    8   16 1   
  18    9   17 1   
  19    9   18 1   
  20   10   19 1   
  21   10   20 1   
  22   11   12 ar  
  23   11   22 1   
  24   12   14 ar  
  25   13   14 ar  
  26   13   23 1   
  27   14   24 1   
@<TRIPOS>SUBSTRUCTURE
1 **** 2 TEMP 0 **** **** 0 ROOT
