@<TRIPOS>MOLECULE
3ert_0
 29 31 0 0 0
SMALL
GASTEIGER
Energy = 0

@<TRIPOS>ATOM
      1 O1         -1.9170    2.0688   -3.0495 O.3     1  ****1      -0.4907
      2 O2         -8.7731   -4.9185   -1.7743 O.3     1  ****1      -0.5068
      3 N1         -1.6271    4.7803   -4.3841 N.3     1  ****1      -0.3051
      4 C1         -3.5871   -3.3892   -3.5761 C.2     1  ****1      -0.0070
      5 C2         -2.7226   -4.2502   -4.1402 C.2     1  ****1      -0.0322
      6 C3         -3.2621   -1.9129   -3.4272 C.ar    1  ****1      -0.0168
      7 C4         -2.9951   -5.7318   -4.4160 C.3     1  ****1      -0.0294
      8 C5         -4.9503   -3.8138   -3.0919 C.ar    1  ****1      -0.0168
      9 C6         -1.4232   -3.6028   -4.5596 C.ar    1  ****1      -0.0213
     10 C7         -3.0481   -1.1160   -4.5580 C.ar    1  ****1      -0.0506
     11 C8         -3.1763   -1.3133   -2.1650 C.ar    1  ****1      -0.0506
     12 C9         -3.8399   -5.7830   -5.7163 C.3     1  ****1      -0.0612
     13 C10        -2.4214    0.7674   -3.1658 C.ar    1  ****1       0.1206
     14 C11        -5.0747   -4.6899   -2.0139 C.ar    1  ****1      -0.0506
     15 C12        -6.0875   -3.3040   -3.7248 C.ar    1  ****1      -0.0506
     16 C13        -2.6321    0.2135   -4.4318 C.ar    1  ****1      -0.0194
     17 C14        -2.7171    0.0038   -2.0321 C.ar    1  ****1      -0.0194
     18 C15        -1.0985   -3.4936   -5.9135 C.ar    1  ****1      -0.0543
     19 C16        -0.5685   -3.0558   -3.5967 C.ar    1  ****1      -0.0543
     20 C17        -2.2580    4.5223   -3.0546 C.3     1  ****1       0.0325
     21 C18        -2.8672    3.1140   -2.7769 C.3     1  ****1       0.1022
     22 C19        -6.3480   -5.0052   -1.5331 C.ar    1  ****1      -0.0196
     23 C20        -7.3596   -3.6889   -3.2956 C.ar    1  ****1      -0.0196
     24 C21         0.0981   -2.8850   -6.2984 C.ar    1  ****1      -0.0612
     25 C22         0.6627   -2.5164   -3.9752 C.ar    1  ****1      -0.0612
     26 C23        -7.4936   -4.5419   -2.1950 C.ar    1  ****1       0.1169
     27 C24         0.9942   -2.4207   -5.3299 C.ar    1  ****1      -0.0617
     28 C25        -1.0549    6.1512   -4.4529 C.3     1  ****1      -0.0129
     29 C26        -0.6514    3.7820   -4.8929 C.3     1  ****1      -0.0129
@<TRIPOS>BOND
     1     1    13    1
     2     1    21    1
     3     2    26    1
     4     3    20    1
     5     3    28    1
     6     3    29    1
     7     4     5    2
     8     4     6    1
     9     4     8    1
    10     5     7    1
    11     5     9    1
    12     6    10   ar
    13     6    11   ar
    14     7    12    1
    15     8    14   ar
    16     8    15   ar
    17     9    18   ar
    18     9    19   ar
    19    10    16   ar
    20    11    17   ar
    21    13    16   ar
    22    13    17   ar
    23    14    22   ar
    24    15    23   ar
    25    18    24   ar
    26    19    25   ar
    27    20    21    1
    28    22    26   ar
    29    23    26   ar
    30    24    27   ar
    31    25    27   ar

@<TRIPOS>MOLECULE
3ert_1
 29 31 0 0 0
SMALL
GASTEIGER
Energy = 0

@<TRIPOS>ATOM
      1 O1         -2.0572    2.2098   -2.3812 O.3     1  ****1      -0.4907
      2 O2         -8.7942   -5.3998   -1.8909 O.3     1  ****1      -0.5068
      3 N1         -4.8427    2.6005   -1.8360 N.3     1  ****1      -0.3051
      4 C1         -3.8564   -3.0612   -3.5181 C.2     1  ****1      -0.0070
      5 C2         -2.9388   -3.8237   -4.1316 C.2     1  ****1      -0.0322
      6 C3         -3.5722   -1.6005   -3.2363 C.ar    1  ****1      -0.0168
      7 C4         -3.1265   -5.2943   -4.4176 C.3     1  ****1      -0.0294
      8 C5         -5.1677   -3.6784   -3.0930 C.ar    1  ****1      -0.0168
      9 C6         -1.6075   -3.2316   -4.5324 C.ar    1  ****1      -0.0213
     10 C7         -3.1629   -0.7585   -4.2751 C.ar    1  ****1      -0.0506
     11 C8         -3.6761   -1.0873   -1.9383 C.ar    1  ****1      -0.0506
     12 C9         -2.1268   -6.1396   -3.5833 C.3     1  ****1      -0.0612
     13 C10        -2.6603    0.9854   -2.6755 C.ar    1  ****1       0.1206
     14 C11        -6.2620   -3.6504   -3.9627 C.ar    1  ****1      -0.0506
     15 C12        -5.2730   -4.3028   -1.8472 C.ar    1  ****1      -0.0506
     16 C13        -2.7061    0.5312   -3.9972 C.ar    1  ****1      -0.0194
     17 C14        -3.1998    0.1972   -1.6537 C.ar    1  ****1      -0.0194
     18 C15        -1.1548   -3.2236   -5.8573 C.ar    1  ****1      -0.0543
     19 C16        -0.8128   -2.7001   -3.5149 C.ar    1  ****1      -0.0543
     20 C17        -3.9230    3.7525   -2.0382 C.3     1  ****1       0.0325
     21 C18        -2.7026    3.3805   -2.9107 C.3     1  ****1       0.1022
     22 C19        -7.4817   -4.2065   -3.5640 C.ar    1  ****1      -0.0196
     23 C20        -6.4840   -4.8837   -1.4646 C.ar    1  ****1      -0.0196
     24 C21         0.1406   -2.7800   -6.1414 C.ar    1  ****1      -0.0612
     25 C22         0.4837   -2.2704   -3.7982 C.ar    1  ****1      -0.0612
     26 C23        -7.5924   -4.8280   -2.3129 C.ar    1  ****1       0.1169
     27 C24         0.9736   -2.3479   -5.1047 C.ar    1  ****1      -0.0617
     28 C25        -5.5324    2.5593   -0.5209 C.3     1  ****1      -0.0129
     29 C26        -5.7024    2.2151   -2.9875 C.3     1  ****1      -0.0129
@<TRIPOS>BOND
     1     1    13    1
     2     1    21    1
     3     2    26    1
     4     3    20    1
     5     3    28    1
     6     3    29    1
     7     4     5    2
     8     4     6    1
     9     4     8    1
    10     5     7    1
    11     5     9    1
    12     6    10   ar
    13     6    11   ar
    14     7    12    1
    15     8    14   ar
    16     8    15   ar
    17     9    18   ar
    18     9    19   ar
    19    10    16   ar
    20    11    17   ar
    21    13    16   ar
    22    13    17   ar
    23    14    22   ar
    24    15    23   ar
    25    18    24   ar
    26    19    25   ar
    27    20    21    1
    28    22    26   ar
    29    23    26   ar
    30    24    27   ar
    31    25    27   ar

@<TRIPOS>MOLECULE
3ert_3
 29 31 0 0 0
SMALL
GASTEIGER
Energy = 0

@<TRIPOS>ATOM
      1 O1         -2.6107    2.3427   -2.7433 O.3     1  ****1      -0.4907
      2 O2         -8.7131   -5.0114   -1.7881 O.3     1  ****1      -0.5068
      3 N1         -2.0755    4.7020   -1.4243 N.3     1  ****1      -0.3051
      4 C1         -3.6079   -3.1635   -3.4973 C.2     1  ****1      -0.0070
      5 C2         -2.7248   -4.0160   -4.0282 C.2     1  ****1      -0.0322
      6 C3         -3.2128   -1.7154   -3.3565 C.ar    1  ****1      -0.0168
      7 C4         -2.9176   -5.5002   -4.2016 C.3     1  ****1      -0.0294
      8 C5         -4.9828   -3.5868   -3.0427 C.ar    1  ****1      -0.0168
      9 C6         -1.4074   -3.4508   -4.4980 C.ar    1  ****1      -0.0213
     10 C7         -2.4396   -1.3004   -2.2693 C.ar    1  ****1      -0.0506
     11 C8         -3.6174   -0.8086   -4.3377 C.ar    1  ****1      -0.0506
     12 C9         -2.7524   -5.9403   -5.6807 C.3     1  ****1      -0.0612
     13 C10        -2.6993    0.9820   -3.0046 C.ar    1  ****1       0.1206
     14 C11        -5.8531   -4.1512   -3.9778 C.ar    1  ****1      -0.0506
     15 C12        -5.3800   -3.4234   -1.7125 C.ar    1  ****1      -0.0506
     16 C13        -2.1644    0.0584   -2.1014 C.ar    1  ****1      -0.0194
     17 C14        -3.3367    0.5480   -4.1698 C.ar    1  ****1      -0.0194
     18 C15        -1.3820   -2.7889   -5.7272 C.ar    1  ****1      -0.0543
     19 C16        -0.2461   -3.5885   -3.7321 C.ar    1  ****1      -0.0543
     20 C17        -3.4604    4.3561   -1.8285 C.3     1  ****1       0.0325
     21 C18        -3.6505    2.8245   -1.8741 C.3     1  ****1       0.1022
     22 C19        -7.0829   -4.6638   -3.5639 C.ar    1  ****1      -0.0196
     23 C20        -6.6073   -3.9485   -1.2988 C.ar    1  ****1      -0.0196
     24 C21        -0.1813   -2.2532   -6.1955 C.ar    1  ****1      -0.0612
     25 C22         0.9532   -3.0470   -4.2023 C.ar    1  ****1      -0.0612
     26 C23        -7.4709   -4.5450   -2.2228 C.ar    1  ****1       0.1169
     27 C24         0.9833   -2.3796   -5.4315 C.ar    1  ****1      -0.0617
     28 C25        -1.7494    6.1079   -1.7681 C.3     1  ****1      -0.0129
     29 C26        -1.6748    4.3082   -0.0468 C.3     1  ****1      -0.0129
@<TRIPOS>BOND
     1     1    13    1
     2     1    21    1
     3     2    26    1
     4     3    20    1
     5     3    28    1
     6     3    29    1
     7     4     5    2
     8     4     6    1
     9     4     8    1
    10     5     7    1
    11     5     9    1
    12     6    10   ar
    13     6    11   ar
    14     7    12    1
    15     8    14   ar
    16     8    15   ar
    17     9    18   ar
    18     9    19   ar
    19    10    16   ar
    20    11    17   ar
    21    13    16   ar
    22    13    17   ar
    23    14    22   ar
    24    15    23   ar
    25    18    24   ar
    26    19    25   ar
    27    20    21    1
    28    22    26   ar
    29    23    26   ar
    30    24    27   ar
    31    25    27   ar

@<TRIPOS>MOLECULE
3ert_6
 29 31 0 0 0
SMALL
GASTEIGER
Energy = 0

@<TRIPOS>ATOM
      1 O1         -2.8814    2.3766   -2.4919 O.3     1  ****1      -0.4907
      2 O2         -8.9405   -4.7836   -2.2458 O.3     1  ****1      -0.5068
      3 N1          0.1023    3.4865   -2.2307 N.3     1  ****1      -0.3051
      4 C1         -3.5866   -3.1914   -3.5317 C.2     1  ****1      -0.0070
      5 C2         -2.6927   -4.0418   -4.0646 C.2     1  ****1      -0.0322
      6 C3         -3.2407   -1.7352   -3.2996 C.ar    1  ****1      -0.0168
      7 C4         -2.9223   -5.5369   -4.1826 C.3     1  ****1      -0.0294
      8 C5         -4.9921   -3.6239   -3.1639 C.ar    1  ****1      -0.0168
      9 C6         -1.3803   -3.4958   -4.5831 C.ar    1  ****1      -0.0213
     10 C7         -2.7570   -1.2932   -2.0633 C.ar    1  ****1      -0.0506
     11 C8         -3.4267   -0.8071   -4.3271 C.ar    1  ****1      -0.0506
     12 C9         -1.6358   -6.3482   -3.8578 C.3     1  ****1      -0.0612
     13 C10        -2.9283    1.0121   -2.8015 C.ar    1  ****1       0.1206
     14 C11        -5.5010   -3.4216   -1.8767 C.ar    1  ****1      -0.0506
     15 C12        -5.8119   -4.2184   -4.1309 C.ar    1  ****1      -0.0506
     16 C13        -2.6232    0.0758   -1.8099 C.ar    1  ****1      -0.0194
     17 C14        -3.2896    0.5617   -4.0775 C.ar    1  ****1      -0.0194
     18 C15        -0.3856   -3.0807   -3.6943 C.ar    1  ****1      -0.0543
     19 C16        -1.1585   -3.4088   -5.9620 C.ar    1  ****1      -0.0543
     20 C17        -0.6133    2.8836   -3.3861 C.3     1  ****1       0.0325
     21 C18        -2.1204    3.2531   -3.3403 C.3     1  ****1       0.1022
     22 C19        -6.8041   -3.8187   -1.5576 C.ar    1  ****1      -0.0196
     23 C20        -7.1120   -4.6216   -3.8119 C.ar    1  ****1      -0.0196
     24 C21         0.8247   -2.5782   -4.1813 C.ar    1  ****1      -0.0612
     25 C22         0.0383   -2.8753   -6.4500 C.ar    1  ****1      -0.0612
     26 C23        -7.6233   -4.4066   -2.5298 C.ar    1  ****1       0.1169
     27 C24         1.0363   -2.4706   -5.5590 C.ar    1  ****1      -0.0617
     28 C25         0.0320    2.7249   -0.9611 C.3     1  ****1      -0.0129
     29 C26         1.4492    4.0267   -2.5338 C.3     1  ****1      -0.0129
@<TRIPOS>BOND
     1     1    13    1
     2     1    21    1
     3     2    26    1
     4     3    20    1
     5     3    28    1
     6     3    29    1
     7     4     5    2
     8     4     6    1
     9     4     8    1
    10     5     7    1
    11     5     9    1
    12     6    10   ar
    13     6    11   ar
    14     7    12    1
    15     8    14   ar
    16     8    15   ar
    17     9    18   ar
    18     9    19   ar
    19    10    16   ar
    20    11    17   ar
    21    13    16   ar
    22    13    17   ar
    23    14    22   ar
    24    15    23   ar
    25    18    24   ar
    26    19    25   ar
    27    20    21    1
    28    22    26   ar
    29    23    26   ar
    30    24    27   ar
    31    25    27   ar

@<TRIPOS>MOLECULE
3ert_7
 29 31 0 0 0
SMALL
GASTEIGER
Energy = 0

@<TRIPOS>ATOM
      1 O1         -2.8752    2.2945   -2.7107 O.3     1  ****1      -0.4907
      2 O2         -8.9927   -4.7659   -2.1434 O.3     1  ****1      -0.5068
      3 N1         -0.5067    5.0128   -1.6474 N.3     1  ****1      -0.3051
      4 C1         -3.6810   -3.2590   -3.6235 C.2     1  ****1      -0.0070
      5 C2         -2.7575   -4.1130   -4.0854 C.2     1  ****1      -0.0322
      6 C3         -3.3245   -1.7999   -3.4621 C.ar    1  ****1      -0.0168
      7 C4         -2.9388   -5.6137   -4.1670 C.3     1  ****1      -0.0294
      8 C5         -5.0814   -3.6628   -3.2187 C.ar    1  ****1      -0.0168
      9 C6         -1.4361   -3.5278   -4.5322 C.ar    1  ****1      -0.0213
     10 C7         -2.7917   -1.3765   -2.2429 C.ar    1  ****1      -0.0506
     11 C8         -3.5237   -0.8788   -4.4936 C.ar    1  ****1      -0.0506
     12 C9         -2.6807   -6.1405   -5.5994 C.3     1  ****1      -0.0612
     13 C10        -2.9333    0.9246   -2.9834 C.ar    1  ****1       0.1206
     14 C11        -5.5384   -3.4243   -1.9178 C.ar    1  ****1      -0.0506
     15 C12        -5.9352   -4.2584   -4.1519 C.ar    1  ****1      -0.0506
     16 C13        -2.6496   -0.0114   -1.9823 C.ar    1  ****1      -0.0194
     17 C14        -3.3039    0.4821   -4.2577 C.ar    1  ****1      -0.0194
     18 C15        -1.3443   -2.8976   -5.7771 C.ar    1  ****1      -0.0543
     19 C16        -0.3119   -3.6055   -3.7059 C.ar    1  ****1      -0.0543
     20 C17        -1.7930    4.3222   -1.9309 C.3     1  ****1       0.0325
     21 C18        -1.5903    2.8554   -2.3884 C.3     1  ****1       0.1022
     22 C19        -6.8445   -3.7655   -1.5537 C.ar    1  ****1      -0.0196
     23 C20        -7.2379   -4.6061   -3.7857 C.ar    1  ****1      -0.0196
     24 C21        -0.1377   -2.3185   -6.1814 C.ar    1  ****1      -0.0612
     25 C22         0.8954   -3.0261   -4.1071 C.ar    1  ****1      -0.0612
     26 C23        -7.6944   -4.3765   -2.4851 C.ar    1  ****1       0.1169
     27 C24         0.9826   -2.3851   -5.3468 C.ar    1  ****1      -0.0617
     28 C25        -0.6114    6.4944   -1.6625 C.3     1  ****1      -0.0129
     29 C26         0.2160    4.4840   -0.4607 C.3     1  ****1      -0.0129
@<TRIPOS>BOND
     1     1    13    1
     2     1    21    1
     3     2    26    1
     4     3    20    1
     5     3    28    1
     6     3    29    1
     7     4     5    2
     8     4     6    1
     9     4     8    1
    10     5     7    1
    11     5     9    1
    12     6    10   ar
    13     6    11   ar
    14     7    12    1
    15     8    14   ar
    16     8    15   ar
    17     9    18   ar
    18     9    19   ar
    19    10    16   ar
    20    11    17   ar
    21    13    16   ar
    22    13    17   ar
    23    14    22   ar
    24    15    23   ar
    25    18    24   ar
    26    19    25   ar
    27    20    21    1
    28    22    26   ar
    29    23    26   ar
    30    24    27   ar
    31    25    27   ar

@<TRIPOS>MOLECULE
3ert_10
 29 31 0 0 0
SMALL
GASTEIGER
Energy = 0

@<TRIPOS>ATOM
      1 O1         -2.5475    2.2395   -2.2996 O.3     1  ****1      -0.4907
      2 O2         -8.8357   -4.7395   -2.1399 O.3     1  ****1      -0.5068
      3 N1         -2.0739    2.7790   -5.6556 N.3     1  ****1      -0.3051
      4 C1         -3.5158   -3.2058   -3.6024 C.2     1  ****1      -0.0070
      5 C2         -2.6455   -4.0472   -4.1726 C.2     1  ****1      -0.0322
      6 C3         -3.1337   -1.7716   -3.3203 C.ar    1  ****1      -0.0168
      7 C4         -2.9566   -5.5160   -4.3167 C.3     1  ****1      -0.0294
      8 C5         -4.9216   -3.6240   -3.2197 C.ar    1  ****1      -0.0168
      9 C6         -1.3309   -3.5094   -4.7006 C.ar    1  ****1      -0.0213
     10 C7         -4.0606   -0.8096   -3.7180 C.ar    1  ****1      -0.0506
     11 C8         -1.9446   -1.3825   -2.6870 C.ar    1  ****1      -0.0506
     12 C9         -2.9349   -6.2579   -2.9536 C.3     1  ****1      -0.0612
     13 C10        -2.7176    0.9126   -2.6836 C.ar    1  ****1       0.1206
     14 C11        -5.2759   -3.7162   -1.8705 C.ar    1  ****1      -0.0506
     15 C12        -5.8834   -3.9022   -4.1992 C.ar    1  ****1      -0.0506
     16 C13        -3.8851    0.5204   -3.3428 C.ar    1  ****1      -0.0194
     17 C14        -1.7320   -0.0331   -2.3840 C.ar    1  ****1      -0.0194
     18 C15        -0.1137   -4.0303   -4.2517 C.ar    1  ****1      -0.0543
     19 C16        -1.3318   -2.4813   -5.6521 C.ar    1  ****1      -0.0543
     20 C17        -2.6873    3.4725   -4.4903 C.3     1  ****1       0.0325
     21 C18        -1.8761    3.1274   -3.2101 C.3     1  ****1       0.1022
     22 C19        -6.5623   -4.1229   -1.5025 C.ar    1  ****1      -0.0196
     23 C20        -7.1798   -4.2766   -3.8322 C.ar    1  ****1      -0.0196
     24 C21         1.0932   -3.5105   -4.7273 C.ar    1  ****1      -0.0612
     25 C22        -0.1249   -1.9596   -6.1292 C.ar    1  ****1      -0.0612
     26 C23        -7.5285   -4.3807   -2.4832 C.ar    1  ****1       0.1169
     27 C24         1.0887   -2.4928   -5.6854 C.ar    1  ****1      -0.0617
     28 C25        -2.9887    1.9903   -6.5113 C.3     1  ****1      -0.0129
     29 C26        -1.1889    3.6440   -6.4742 C.3     1  ****1      -0.0129
@<TRIPOS>BOND
     1     1    13    1
     2     1    21    1
     3     2    26    1
     4     3    20    1
     5     3    28    1
     6     3    29    1
     7     4     5    2
     8     4     6    1
     9     4     8    1
    10     5     7    1
    11     5     9    1
    12     6    10   ar
    13     6    11   ar
    14     7    12    1
    15     8    14   ar
    16     8    15   ar
    17     9    18   ar
    18     9    19   ar
    19    10    16   ar
    20    11    17   ar
    21    13    16   ar
    22    13    17   ar
    23    14    22   ar
    24    15    23   ar
    25    18    24   ar
    26    19    25   ar
    27    20    21    1
    28    22    26   ar
    29    23    26   ar
    30    24    27   ar
    31    25    27   ar

@<TRIPOS>MOLECULE
3ert_11
 29 31 0 0 0
SMALL
GASTEIGER
Energy = 0

@<TRIPOS>ATOM
      1 O1         -2.0503    2.0371   -2.6459 O.3     1  ****1      -0.4907
      2 O2         -9.2413   -4.7074   -2.5930 O.3     1  ****1      -0.5068
      3 N1         -1.5406    4.7023   -2.9599 N.3     1  ****1      -0.3051
      4 C1         -3.7346   -3.3586   -3.4299 C.2     1  ****1      -0.0070
      5 C2         -2.8171   -4.1908   -3.9521 C.2     1  ****1      -0.0322
      6 C3         -3.3127   -1.9321   -3.1545 C.ar    1  ****1      -0.0168
      7 C4         -3.0106   -5.6530   -4.2716 C.3     1  ****1      -0.0294
      8 C5         -5.1788   -3.7420   -3.1696 C.ar    1  ****1      -0.0168
      9 C6         -1.4711   -3.6290   -4.3464 C.ar    1  ****1      -0.0213
     10 C7         -2.3226   -1.6193   -2.2166 C.ar    1  ****1      -0.0506
     11 C8         -3.9103   -0.9089   -3.8934 C.ar    1  ****1      -0.0506
     12 C9         -1.7623   -6.5493   -4.0274 C.3     1  ****1      -0.0612
     13 C10        -2.4300    0.7098   -2.8651 C.ar    1  ****1       0.1206
     14 C11        -5.7965   -3.4646   -1.9442 C.ar    1  ****1      -0.0506
     15 C12        -5.9246   -4.3576   -4.1814 C.ar    1  ****1      -0.0506
     16 C13        -1.8481   -0.3090   -2.1065 C.ar    1  ****1      -0.0194
     17 C14        -3.3970    0.3882   -3.8247 C.ar    1  ****1      -0.0194
     18 C15        -1.3296   -3.1391   -5.6479 C.ar    1  ****1      -0.0543
     19 C16        -0.3894   -3.6031   -3.4627 C.ar    1  ****1      -0.0543
     20 C17        -2.6419    4.3435   -2.0399 C.3     1  ****1       0.0325
     21 C18        -3.1491    2.9055   -2.3109 C.3     1  ****1       0.1022
     22 C19        -7.1407   -3.7969   -1.7330 C.ar    1  ****1      -0.0196
     23 C20        -7.2616   -4.7046   -3.9663 C.ar    1  ****1      -0.0196
     24 C21        -0.1207   -2.5659   -6.0500 C.ar    1  ****1      -0.0612
     25 C22         0.8133   -3.0134   -3.8606 C.ar    1  ****1      -0.0612
     26 C23        -7.8854   -4.4018   -2.7542 C.ar    1  ****1       0.1169
     27 C24         0.9557   -2.5153   -5.1594 C.ar    1  ****1      -0.0617
     28 C25        -0.1552    4.7272   -2.4416 C.3     1  ****1      -0.0129
     29 C26        -1.8112    4.8603   -4.4058 C.3     1  ****1      -0.0129
@<TRIPOS>BOND
     1     1    13    1
     2     1    21    1
     3     2    26    1
     4     3    20    1
     5     3    28    1
     6     3    29    1
     7     4     5    2
     8     4     6    1
     9     4     8    1
    10     5     7    1
    11     5     9    1
    12     6    10   ar
    13     6    11   ar
    14     7    12    1
    15     8    14   ar
    16     8    15   ar
    17     9    18   ar
    18     9    19   ar
    19    10    16   ar
    20    11    17   ar
    21    13    16   ar
    22    13    17   ar
    23    14    22   ar
    24    15    23   ar
    25    18    24   ar
    26    19    25   ar
    27    20    21    1
    28    22    26   ar
    29    23    26   ar
    30    24    27   ar
    31    25    27   ar

@<TRIPOS>MOLECULE
3ert_12
 29 31 0 0 0
SMALL
GASTEIGER
Energy = 0

@<TRIPOS>ATOM
      1 O1         -2.4391    2.3362   -2.7184 O.3     1  ****1      -0.4907
      2 O2         -8.7215   -5.2471   -1.9478 O.3     1  ****1      -0.5068
      3 N1         -2.7242    5.0505   -2.2188 N.3     1  ****1      -0.3051
      4 C1         -3.6886   -3.1369   -3.6020 C.2     1  ****1      -0.0070
      5 C2         -2.7743   -3.9699   -4.1328 C.2     1  ****1      -0.0322
      6 C3         -3.3955   -1.6776   -3.3431 C.ar    1  ****1      -0.0168
      7 C4         -3.0628   -5.4489   -4.3104 C.3     1  ****1      -0.0294
      8 C5         -5.0697   -3.5917   -3.1903 C.ar    1  ****1      -0.0168
      9 C6         -1.4082   -3.4694   -4.5755 C.ar    1  ****1      -0.0213
     10 C7         -4.2863   -0.6798   -3.7559 C.ar    1  ****1      -0.0506
     11 C8         -2.2179   -1.3367   -2.6746 C.ar    1  ****1      -0.0506
     12 C9         -3.1433   -6.1695   -2.9399 C.3     1  ****1      -0.0612
     13 C10        -2.7569    1.0015   -2.9360 C.ar    1  ****1       0.1206
     14 C11        -5.9990   -4.0070   -4.1466 C.ar    1  ****1      -0.0506
     15 C12        -5.4219   -3.5901   -1.8366 C.ar    1  ****1      -0.0506
     16 C13        -3.9743    0.6648   -3.5319 C.ar    1  ****1      -0.0194
     17 C14        -1.8597    0.0047   -2.5461 C.ar    1  ****1      -0.0194
     18 C15        -0.2312   -4.1292   -4.1936 C.ar    1  ****1      -0.0543
     19 C16        -1.2976   -2.3406   -5.3973 C.ar    1  ****1      -0.0543
     20 C17        -2.0531    4.1684   -1.2256 C.3     1  ****1       0.0325
     21 C18        -2.5067    2.6934   -1.3301 C.3     1  ****1       0.1022
     22 C19        -7.2174   -4.5589   -3.7422 C.ar    1  ****1      -0.0196
     23 C20        -6.6299   -4.1633   -1.4305 C.ar    1  ****1      -0.0196
     24 C21         1.0065   -3.7587   -4.7323 C.ar    1  ****1      -0.0612
     25 C22        -0.0605   -1.9515   -5.9206 C.ar    1  ****1      -0.0612
     26 C23        -7.5281   -4.6603   -2.3794 C.ar    1  ****1       0.1169
     27 C24         1.0924   -2.6778   -5.6140 C.ar    1  ****1      -0.0617
     28 C25        -4.1976    5.1672   -2.0852 C.3     1  ****1      -0.0129
     29 C26        -2.0794    6.3782   -2.3775 C.3     1  ****1      -0.0129
@<TRIPOS>BOND
     1     1    13    1
     2     1    21    1
     3     2    26    1
     4     3    20    1
     5     3    28    1
     6     3    29    1
     7     4     5    2
     8     4     6    1
     9     4     8    1
    10     5     7    1
    11     5     9    1
    12     6    10   ar
    13     6    11   ar
    14     7    12    1
    15     8    14   ar
    16     8    15   ar
    17     9    18   ar
    18     9    19   ar
    19    10    16   ar
    20    11    17   ar
    21    13    16   ar
    22    13    17   ar
    23    14    22   ar
    24    15    23   ar
    25    18    24   ar
    26    19    25   ar
    27    20    21    1
    28    22    26   ar
    29    23    26   ar
    30    24    27   ar
    31    25    27   ar

@<TRIPOS>MOLECULE
3ert_14
 29 31 0 0 0
SMALL
GASTEIGER
Energy = 0

@<TRIPOS>ATOM
      1 O1         -1.6858    2.1773   -3.1671 O.3     1  ****1      -0.4907
      2 O2         -8.7532   -4.9883   -2.0513 O.3     1  ****1      -0.5068
      3 N1         -0.2484    4.4834   -3.0423 N.3     1  ****1      -0.3051
      4 C1         -3.5410   -3.1861   -3.4814 C.2     1  ****1      -0.0070
      5 C2         -2.7174   -4.0570   -4.0853 C.2     1  ****1      -0.0322
      6 C3         -3.0970   -1.7612   -3.2560 C.ar    1  ****1      -0.0168
      7 C4         -3.0705   -5.5057   -4.3001 C.3     1  ****1      -0.0294
      8 C5         -4.9327   -3.5907   -3.0549 C.ar    1  ****1      -0.0168
      9 C6         -1.3786   -3.5985   -4.6255 C.ar    1  ****1      -0.0213
     10 C7         -3.9426   -0.7141   -3.6307 C.ar    1  ****1      -0.0506
     11 C8         -1.8345   -1.4939   -2.7177 C.ar    1  ****1      -0.0506
     12 C9         -2.9055   -5.8743   -5.7976 C.3     1  ****1      -0.0612
     13 C10        -2.1423    0.8561   -3.2027 C.ar    1  ****1       0.1206
     14 C11        -5.2909   -3.6967   -1.7079 C.ar    1  ****1      -0.0506
     15 C12        -5.8651   -3.8742   -4.0559 C.ar    1  ****1      -0.0506
     16 C13        -3.4225    0.5808   -3.6951 C.ar    1  ****1      -0.0194
     17 C14        -1.3273   -0.1924   -2.7619 C.ar    1  ****1      -0.0194
     18 C15        -1.3812   -2.5792   -5.5816 C.ar    1  ****1      -0.0543
     19 C16        -0.1632   -4.1640   -4.2203 C.ar    1  ****1      -0.0543
     20 C17        -1.4029    4.3604   -2.1092 C.3     1  ****1       0.0325
     21 C18        -1.7680    2.8651   -1.9028 C.3     1  ****1       0.1022
     22 C19        -6.5534   -4.1937   -1.3669 C.ar    1  ****1      -0.0196
     23 C20        -7.1300   -4.3540   -3.7125 C.ar    1  ****1      -0.0196
     24 C21        -0.1785   -2.0874   -6.0932 C.ar    1  ****1      -0.0612
     25 C22         1.0423   -3.6810   -4.7415 C.ar    1  ****1      -0.0612
     26 C23        -7.4797   -4.5123   -2.3692 C.ar    1  ****1       0.1169
     27 C24         1.0341   -2.6493   -5.6853 C.ar    1  ****1      -0.0617
     28 C25        -0.6280    4.9457   -4.4014 C.3     1  ****1      -0.0129
     29 C26         0.9265    5.2169   -2.5121 C.3     1  ****1      -0.0129
@<TRIPOS>BOND
     1     1    13    1
     2     1    21    1
     3     2    26    1
     4     3    20    1
     5     3    28    1
     6     3    29    1
     7     4     5    2
     8     4     6    1
     9     4     8    1
    10     5     7    1
    11     5     9    1
    12     6    10   ar
    13     6    11   ar
    14     7    12    1
    15     8    14   ar
    16     8    15   ar
    17     9    18   ar
    18     9    19   ar
    19    10    16   ar
    20    11    17   ar
    21    13    16   ar
    22    13    17   ar
    23    14    22   ar
    24    15    23   ar
    25    18    24   ar
    26    19    25   ar
    27    20    21    1
    28    22    26   ar
    29    23    26   ar
    30    24    27   ar
    31    25    27   ar

@<TRIPOS>MOLECULE
3ert_16
 29 31 0 0 0
SMALL
GASTEIGER
Energy = 0

@<TRIPOS>ATOM
      1 O1         -2.6325    2.2915   -2.5388 O.3     1  ****1      -0.4907
      2 O2         -8.6036   -5.2624   -1.9550 O.3     1  ****1      -0.5068
      3 N1          0.0437    2.7719    0.1264 N.3     1  ****1      -0.3051
      4 C1         -3.4934   -3.3105   -3.5988 C.2     1  ****1      -0.0070
      5 C2         -2.6550   -4.1715   -4.2155 C.2     1  ****1      -0.0322
      6 C3         -3.2215   -1.8459   -3.2956 C.ar    1  ****1      -0.0168
      7 C4         -3.0312   -5.6242   -4.4891 C.3     1  ****1      -0.0294
      8 C5         -4.8640   -3.7758   -3.1573 C.ar    1  ****1      -0.0168
      9 C6         -1.2953   -3.7307   -4.7246 C.ar    1  ****1      -0.0213
     10 C7         -4.2933   -0.9406   -3.2542 C.ar    1  ****1      -0.0506
     11 C8         -1.9425   -1.3392   -3.0366 C.ar    1  ****1      -0.0506
     12 C9         -2.1400   -6.6522   -3.7490 C.3     1  ****1      -0.0612
     13 C10        -2.7956    0.9220   -2.8105 C.ar    1  ****1       0.1206
     14 C11        -5.8592   -4.0007   -4.1125 C.ar    1  ****1      -0.0506
     15 C12        -5.1466   -3.9628   -1.8013 C.ar    1  ****1      -0.0506
     16 C13        -4.0861    0.4133   -2.9715 C.ar    1  ****1      -0.0194
     17 C14        -1.7162    0.0373   -2.9279 C.ar    1  ****1      -0.0194
     18 C15        -0.0900   -4.1132   -4.1189 C.ar    1  ****1      -0.0543
     19 C16        -1.2498   -2.9099   -5.8556 C.ar    1  ****1      -0.0543
     20 C17        -1.1733    2.2163   -0.5174 C.3     1  ****1       0.0325
     21 C18        -1.4477    2.8286   -1.9174 C.3     1  ****1       0.1022
     22 C19        -7.1149   -4.4734   -3.7209 C.ar    1  ****1      -0.0196
     23 C20        -6.3996   -4.4459   -1.4125 C.ar    1  ****1      -0.0196
     24 C21         1.1375   -3.7539   -4.6879 C.ar    1  ****1      -0.0612
     25 C22        -0.0261   -2.4936   -6.3888 C.ar    1  ****1      -0.0612
     26 C23        -7.3788   -4.7290   -2.3690 C.ar    1  ****1       0.1169
     27 C24         1.1716   -2.9355   -5.8202 C.ar    1  ****1      -0.0617
     28 C25         1.2802    2.7861   -0.6879 C.3     1  ****1      -0.0129
     29 C26        -0.0818    3.9736    0.9818 C.3     1  ****1      -0.0129
@<TRIPOS>BOND
     1     1    13    1
     2     1    21    1
     3     2    26    1
     4     3    20    1
     5     3    28    1
     6     3    29    1
     7     4     5    2
     8     4     6    1
     9     4     8    1
    10     5     7    1
    11     5     9    1
    12     6    10   ar
    13     6    11   ar
    14     7    12    1
    15     8    14   ar
    16     8    15   ar
    17     9    18   ar
    18     9    19   ar
    19    10    16   ar
    20    11    17   ar
    21    13    16   ar
    22    13    17   ar
    23    14    22   ar
    24    15    23   ar
    25    18    24   ar
    26    19    25   ar
    27    20    21    1
    28    22    26   ar
    29    23    26   ar
    30    24    27   ar
    31    25    27   ar

@<TRIPOS>MOLECULE
3ert_17
 29 31 0 0 0
SMALL
GASTEIGER
Energy = 0

@<TRIPOS>ATOM
      1 O1         -2.5554    2.0927   -2.1584 O.3     1  ****1      -0.4907
      2 O2         -9.2280   -4.7673   -2.5627 O.3     1  ****1      -0.5068
      3 N1         -0.7075    4.2983   -1.7019 N.3     1  ****1      -0.3051
      4 C1         -3.7759   -3.3102   -3.6152 C.2     1  ****1      -0.0070
      5 C2         -2.8184   -4.1303   -4.0913 C.2     1  ****1      -0.0322
      6 C3         -3.4681   -1.8750   -3.2377 C.ar    1  ****1      -0.0168
      7 C4         -3.0217   -5.6145   -4.2985 C.3     1  ****1      -0.0294
      8 C5         -5.2194   -3.7259   -3.3930 C.ar    1  ****1      -0.0168
      9 C6         -1.4507   -3.6029   -4.4776 C.ar    1  ****1      -0.0213
     10 C7         -4.2669   -0.8273   -3.7070 C.ar    1  ****1      -0.0506
     11 C8         -2.4021   -1.5725   -2.3851 C.ar    1  ****1      -0.0506
     12 C9         -1.7551   -6.4750   -4.0125 C.3     1  ****1      -0.0612
     13 C10        -2.8419    0.7919   -2.5917 C.ar    1  ****1       0.1206
     14 C11        -5.7782   -3.4636   -2.1386 C.ar    1  ****1      -0.0506
     15 C12        -6.0213   -4.3277   -4.3728 C.ar    1  ****1      -0.0506
     16 C13        -3.9660    0.4999   -3.3764 C.ar    1  ****1      -0.0194
     17 C14        -1.9948   -0.2491   -2.2080 C.ar    1  ****1      -0.0194
     18 C15        -1.2244   -3.1591   -5.7858 C.ar    1  ****1      -0.0543
     19 C16        -0.3950   -3.5760   -3.5614 C.ar    1  ****1      -0.0543
     20 C17        -1.9379    4.4435   -2.5130 C.3     1  ****1       0.0325
     21 C18        -2.4175    3.1149   -3.1550 C.3     1  ****1       0.1022
     22 C19        -7.0912   -3.8362   -1.8374 C.ar    1  ****1      -0.0196
     23 C20        -7.3426   -4.6911   -4.0769 C.ar    1  ****1      -0.0196
     24 C21         0.0137   -2.6155   -6.1459 C.ar    1  ****1      -0.0612
     25 C22         0.8033   -2.9337   -3.8854 C.ar    1  ****1      -0.0612
     26 C23        -7.8925   -4.4316   -2.8179 C.ar    1  ****1       0.1169
     27 C24         1.0260   -2.4880   -5.1907 C.ar    1  ****1      -0.0617
     28 C25        -0.8535    4.1708   -0.2325 C.3     1  ****1      -0.0129
     29 C26         0.4362    3.6405   -2.3709 C.3     1  ****1      -0.0129
@<TRIPOS>BOND
     1     1    13    1
     2     1    21    1
     3     2    26    1
     4     3    20    1
     5     3    28    1
     6     3    29    1
     7     4     5    2
     8     4     6    1
     9     4     8    1
    10     5     7    1
    11     5     9    1
    12     6    10   ar
    13     6    11   ar
    14     7    12    1
    15     8    14   ar
    16     8    15   ar
    17     9    18   ar
    18     9    19   ar
    19    10    16   ar
    20    11    17   ar
    21    13    16   ar
    22    13    17   ar
    23    14    22   ar
    24    15    23   ar
    25    18    24   ar
    26    19    25   ar
    27    20    21    1
    28    22    26   ar
    29    23    26   ar
    30    24    27   ar
    31    25    27   ar

@<TRIPOS>MOLECULE
3ert_18
 29 31 0 0 0
SMALL
GASTEIGER
Energy = 0

@<TRIPOS>ATOM
      1 O1         -2.0693    2.2859   -2.4983 O.3     1  ****1      -0.4907
      2 O2         -8.7128   -5.0774   -1.8961 O.3     1  ****1      -0.5068
      3 N1         -3.8968    4.6131   -3.4129 N.3     1  ****1      -0.3051
      4 C1         -3.6410   -3.1002   -3.6058 C.2     1  ****1      -0.0070
      5 C2         -2.8729   -3.9443   -4.3142 C.2     1  ****1      -0.0322
      6 C3         -3.1555   -1.6920   -3.3261 C.ar    1  ****1      -0.0168
      7 C4         -3.2376   -5.3639   -4.6869 C.3     1  ****1      -0.0294
      8 C5         -4.9942   -3.5269   -3.0819 C.ar    1  ****1      -0.0168
      9 C6         -1.5190   -3.4491   -4.7604 C.ar    1  ****1      -0.0213
     10 C7         -2.9370   -0.7913   -4.3755 C.ar    1  ****1      -0.0506
     11 C8         -2.9027   -1.2819   -2.0135 C.ar    1  ****1      -0.0506
     12 C9         -2.0523   -6.3484   -4.4661 C.3     1  ****1      -0.0612
     13 C10        -2.3748    0.9534   -2.7905 C.ar    1  ****1       0.1206
     14 C11        -5.1099   -4.1828   -1.8523 C.ar    1  ****1      -0.0506
     15 C12        -6.1406   -3.2795   -3.8422 C.ar    1  ****1      -0.0506
     16 C13        -2.5581    0.5291   -4.1109 C.ar    1  ****1      -0.0194
     17 C14        -2.4859    0.0251   -1.7520 C.ar    1  ****1      -0.0194
     18 C15        -1.1729   -3.3315   -6.1098 C.ar    1  ****1      -0.0543
     19 C16        -0.6073   -3.1076   -3.7602 C.ar    1  ****1      -0.0543
     20 C17        -4.2555    3.4205   -2.6040 C.3     1  ****1       0.0325
     21 C18        -3.0606    2.9864   -1.7198 C.3     1  ****1       0.1022
     22 C19        -6.3420   -4.7094   -1.4502 C.ar    1  ****1      -0.0196
     23 C20        -7.3683   -3.8200   -3.4498 C.ar    1  ****1      -0.0196
     24 C21         0.0570   -2.7617   -6.4524 C.ar    1  ****1      -0.0612
     25 C22         0.6343   -2.5736   -4.1043 C.ar    1  ****1      -0.0612
     26 C23        -7.4745   -4.5400   -2.2574 C.ar    1  ****1       0.1169
     27 C24         0.9597   -2.3891   -5.4509 C.ar    1  ****1      -0.0617
     28 C25        -2.7570    4.4624   -4.3531 C.3     1  ****1      -0.0129
     29 C26        -5.0524    5.3610   -3.9615 C.3     1  ****1      -0.0129
@<TRIPOS>BOND
     1     1    13    1
     2     1    21    1
     3     2    26    1
     4     3    20    1
     5     3    28    1
     6     3    29    1
     7     4     5    2
     8     4     6    1
     9     4     8    1
    10     5     7    1
    11     5     9    1
    12     6    10   ar
    13     6    11   ar
    14     7    12    1
    15     8    14   ar
    16     8    15   ar
    17     9    18   ar
    18     9    19   ar
    19    10    16   ar
    20    11    17   ar
    21    13    16   ar
    22    13    17   ar
    23    14    22   ar
    24    15    23   ar
    25    18    24   ar
    26    19    25   ar
    27    20    21    1
    28    22    26   ar
    29    23    26   ar
    30    24    27   ar
    31    25    27   ar

@<TRIPOS>MOLECULE
3ert_20
 29 31 0 0 0
SMALL
GASTEIGER
Energy = 0

@<TRIPOS>ATOM
      1 O1         -2.3645    2.0732   -2.4100 O.3     1  ****1      -0.4907
      2 O2         -9.0058   -4.6942   -2.2324 O.3     1  ****1      -0.5068
      3 N1         -3.3517    5.6728   -2.1615 N.3     1  ****1      -0.3051
      4 C1         -3.6432   -3.3348   -3.6663 C.2     1  ****1      -0.0070
      5 C2         -2.6331   -4.1364   -4.0556 C.2     1  ****1      -0.0322
      6 C3         -3.3455   -1.8553   -3.5088 C.ar    1  ****1      -0.0168
      7 C4         -2.6027   -5.6646   -4.1264 C.3     1  ****1      -0.0294
      8 C5         -5.0650   -3.7458   -3.3168 C.ar    1  ****1      -0.0168
      9 C6         -1.3534   -3.4891   -4.5434 C.ar    1  ****1      -0.0213
     10 C7         -3.4554   -0.8358   -4.4677 C.ar    1  ****1      -0.0506
     11 C8         -2.9292   -1.5354   -2.2147 C.ar    1  ****1      -0.0506
     12 C9         -2.9680   -6.3762   -2.7720 C.3     1  ****1      -0.0612
     13 C10        -2.7111    0.7797   -2.7998 C.ar    1  ****1       0.1206
     14 C11        -5.8116   -2.8822   -2.4987 C.ar    1  ****1      -0.0506
     15 C12        -5.6921   -4.9059   -3.7982 C.ar    1  ****1      -0.0506
     16 C13        -3.1433    0.4826   -4.1018 C.ar    1  ****1      -0.0194
     17 C14        -2.6072   -0.2331   -1.8456 C.ar    1  ****1      -0.0194
     18 C15        -0.9961   -3.9044   -5.8283 C.ar    1  ****1      -0.0543
     19 C16        -0.5382   -2.5684   -3.8655 C.ar    1  ****1      -0.0543
     20 C17        -2.5783    4.4235   -2.0031 C.3     1  ****1       0.0325
     21 C18        -3.1463    3.2140   -2.7942 C.3     1  ****1       0.1022
     22 C19        -7.1510   -3.1377   -2.1961 C.ar    1  ****1      -0.0196
     23 C20        -7.0120   -5.2016   -3.4680 C.ar    1  ****1      -0.0196
     24 C21         0.2740   -3.6187   -6.3179 C.ar    1  ****1      -0.0612
     25 C22         0.6280   -2.0949   -4.4735 C.ar    1  ****1      -0.0612
     26 C23        -7.7219   -4.3402   -2.6279 C.ar    1  ****1       0.1169
     27 C24         1.0694   -2.6753   -5.6656 C.ar    1  ****1      -0.0617
     28 C25        -3.2196    6.3854   -3.4504 C.3     1  ****1      -0.0129
     29 C26        -4.7498    5.5937   -1.6854 C.3     1  ****1      -0.0129
@<TRIPOS>BOND
     1     1    13    1
     2     1    21    1
     3     2    26    1
     4     3    20    1
     5     3    28    1
     6     3    29    1
     7     4     5    2
     8     4     6    1
     9     4     8    1
    10     5     7    1
    11     5     9    1
    12     6    10   ar
    13     6    11   ar
    14     7    12    1
    15     8    14   ar
    16     8    15   ar
    17     9    18   ar
    18     9    19   ar
    19    10    16   ar
    20    11    17   ar
    21    13    16   ar
    22    13    17   ar
    23    14    22   ar
    24    15    23   ar
    25    18    24   ar
    26    19    25   ar
    27    20    21    1
    28    22    26   ar
    29    23    26   ar
    30    24    27   ar
    31    25    27   ar

@<TRIPOS>MOLECULE
3ert_22
 29 31 0 0 0
SMALL
GASTEIGER
Energy = 0

@<TRIPOS>ATOM
      1 O1         -2.5866    2.2829   -2.4657 O.3     1  ****1      -0.4907
      2 O2         -8.8873   -5.0174   -1.9319 O.3     1  ****1      -0.5068
      3 N1         -0.1435    5.0332   -1.5945 N.3     1  ****1      -0.3051
      4 C1         -3.6565   -3.3098   -3.5070 C.2     1  ****1      -0.0070
      5 C2         -2.7801   -4.1489   -4.0946 C.2     1  ****1      -0.0322
      6 C3         -3.3304   -1.8476   -3.2173 C.ar    1  ****1      -0.0168
      7 C4         -2.8868   -5.6498   -4.3619 C.3     1  ****1      -0.0294
      8 C5         -5.0342   -3.7982   -3.1126 C.ar    1  ****1      -0.0168
      9 C6         -1.4865   -3.5661   -4.6133 C.ar    1  ****1      -0.0213
     10 C7         -4.3267   -0.8757   -3.3743 C.ar    1  ****1      -0.0506
     11 C8         -2.0721   -1.3993   -2.7849 C.ar    1  ****1      -0.0506
     12 C9         -4.1990   -6.4611   -4.1806 C.3     1  ****1      -0.0612
     13 C10        -2.8181    0.9155   -2.7128 C.ar    1  ****1       0.1206
     14 C11        -6.0578   -3.8875   -4.0632 C.ar    1  ****1      -0.0506
     15 C12        -5.2939   -4.1680   -1.7901 C.ar    1  ****1      -0.0506
     16 C13        -4.0644    0.4889   -3.1915 C.ar    1  ****1      -0.0194
     17 C14        -1.8337   -0.0532   -2.4855 C.ar    1  ****1      -0.0194
     18 C15        -1.5424   -2.5390   -5.5590 C.ar    1  ****1      -0.0543
     19 C16        -0.2521   -4.0452   -4.1656 C.ar    1  ****1      -0.0543
     20 C17        -1.3812    4.3603   -2.0698 C.3     1  ****1       0.0325
     21 C18        -1.2581    2.8291   -2.2688 C.3     1  ****1       0.1022
     22 C19        -7.3299   -4.3382   -3.6898 C.ar    1  ****1      -0.0196
     23 C20        -6.5571   -4.6419   -1.4236 C.ar    1  ****1      -0.0196
     24 C21        -0.3665   -2.0845   -6.1591 C.ar    1  ****1      -0.0612
     25 C22         0.9261   -3.5739   -4.7501 C.ar    1  ****1      -0.0612
     26 C23        -7.5987   -4.6694   -2.3552 C.ar    1  ****1       0.1169
     27 C24         0.8657   -2.6198   -5.7708 C.ar    1  ****1      -0.0617
     28 C25         0.0341    5.0804   -0.1219 C.3     1  ****1      -0.0129
     29 C26         1.0973    4.9489   -2.4026 C.3     1  ****1      -0.0129
@<TRIPOS>BOND
     1     1    13    1
     2     1    21    1
     3     2    26    1
     4     3    20    1
     5     3    28    1
     6     3    29    1
     7     4     5    2
     8     4     6    1
     9     4     8    1
    10     5     7    1
    11     5     9    1
    12     6    10   ar
    13     6    11   ar
    14     7    12    1
    15     8    14   ar
    16     8    15   ar
    17     9    18   ar
    18     9    19   ar
    19    10    16   ar
    20    11    17   ar
    21    13    16   ar
    22    13    17   ar
    23    14    22   ar
    24    15    23   ar
    25    18    24   ar
    26    19    25   ar
    27    20    21    1
    28    22    26   ar
    29    23    26   ar
    30    24    27   ar
    31    25    27   ar

@<TRIPOS>MOLECULE
3ert_24
 29 31 0 0 0
SMALL
GASTEIGER
Energy = 0

@<TRIPOS>ATOM
      1 O1         -2.0987    2.1546   -2.8169 O.3     1  ****1      -0.4907
      2 O2         -8.9781   -4.6233   -2.1733 O.3     1  ****1      -0.5068
      3 N1         -3.3834    5.5413   -1.9372 N.3     1  ****1      -0.3051
      4 C1         -3.6262   -3.2687   -3.6974 C.2     1  ****1      -0.0070
      5 C2         -2.7403   -4.0946   -4.2777 C.2     1  ****1      -0.0322
      6 C3         -3.2185   -1.8397   -3.4214 C.ar    1  ****1      -0.0168
      7 C4         -2.9948   -5.5519   -4.5777 C.3     1  ****1      -0.0294
      8 C5         -5.0423   -3.6458   -3.3109 C.ar    1  ****1      -0.0168
      9 C6         -1.4039   -3.5190   -4.6943 C.ar    1  ****1      -0.0213
     10 C7         -3.9564   -0.8193   -4.0244 C.ar    1  ****1      -0.0506
     11 C8         -2.1316   -1.5238   -2.6002 C.ar    1  ****1      -0.0506
     12 C9         -1.8316   -6.5070   -4.1978 C.3     1  ****1      -0.0612
     13 C10        -2.4758    0.8318   -3.0559 C.ar    1  ****1       0.1206
     14 C11        -5.5024   -3.3252   -2.0290 C.ar    1  ****1      -0.0506
     15 C12        -5.9097   -4.2826   -4.2063 C.ar    1  ****1      -0.0506
     16 C13        -3.5733    0.5144   -3.8665 C.ar    1  ****1      -0.0194
     17 C14        -1.7326   -0.1924   -2.4648 C.ar    1  ****1      -0.0194
     18 C15        -1.3000   -2.7772   -5.8757 C.ar    1  ****1      -0.0543
     19 C16        -0.2741   -3.7095   -3.8946 C.ar    1  ****1      -0.0543
     20 C17        -2.4379    4.4002   -1.9937 C.3     1  ****1       0.0325
     21 C18        -3.1235    3.0744   -2.4063 C.3     1  ****1       0.1022
     22 C19        -6.7962   -3.6721   -1.6284 C.ar    1  ****1      -0.0196
     23 C20        -7.1984   -4.6445   -3.8016 C.ar    1  ****1      -0.0196
     24 C21        -0.1049   -2.1204   -6.1855 C.ar    1  ****1      -0.0612
     25 C22         0.9236   -3.0614   -4.2071 C.ar    1  ****1      -0.0612
     26 C23        -7.6607   -4.3121   -2.5254 C.ar    1  ****1       0.1169
     27 C24         1.0014   -2.2465   -5.3400 C.ar    1  ****1      -0.0617
     28 C25        -3.9857    5.9583   -3.2278 C.3     1  ****1      -0.0129
     29 C26        -4.3294    5.5445   -0.7977 C.3     1  ****1      -0.0129
@<TRIPOS>BOND
     1     1    13    1
     2     1    21    1
     3     2    26    1
     4     3    20    1
     5     3    28    1
     6     3    29    1
     7     4     5    2
     8     4     6    1
     9     4     8    1
    10     5     7    1
    11     5     9    1
    12     6    10   ar
    13     6    11   ar
    14     7    12    1
    15     8    14   ar
    16     8    15   ar
    17     9    18   ar
    18     9    19   ar
    19    10    16   ar
    20    11    17   ar
    21    13    16   ar
    22    13    17   ar
    23    14    22   ar
    24    15    23   ar
    25    18    24   ar
    26    19    25   ar
    27    20    21    1
    28    22    26   ar
    29    23    26   ar
    30    24    27   ar
    31    25    27   ar

@<TRIPOS>MOLECULE
3ert_25
 29 31 0 0 0
SMALL
GASTEIGER
Energy = 0

@<TRIPOS>ATOM
      1 O1         -3.7354    2.2241   -3.1680 O.3     1  ****1      -0.4907
      2 O2         -8.9202   -4.8652   -2.6292 O.3     1  ****1      -0.5068
      3 N1         -3.5106    4.8162   -1.5298 N.3     1  ****1      -0.3051
      4 C1         -3.5002   -3.3216   -3.5751 C.2     1  ****1      -0.0070
      5 C2         -2.6043   -4.2614   -3.9016 C.2     1  ****1      -0.0322
      6 C3         -3.1582   -1.8511   -3.5260 C.ar    1  ****1      -0.0168
      7 C4         -2.9638   -5.7355   -3.8647 C.3     1  ****1      -0.0294
      8 C5         -4.9402   -3.6844   -3.2867 C.ar    1  ****1      -0.0168
      9 C6         -1.2365   -3.7874   -4.3427 C.ar    1  ****1      -0.0213
     10 C7         -2.8367   -1.2378   -2.3115 C.ar    1  ****1      -0.0506
     11 C8         -3.2179   -1.0836   -4.6931 C.ar    1  ****1      -0.0506
     12 C9         -1.7450   -6.6299   -3.5469 C.3     1  ****1      -0.0612
     13 C10        -3.3598    0.8930   -3.3141 C.ar    1  ****1       0.1206
     14 C11        -5.5422   -3.4279   -2.0514 C.ar    1  ****1      -0.0506
     15 C12        -5.6845   -4.2831   -4.3077 C.ar    1  ****1      -0.0506
     16 C13        -2.9878    0.1457   -2.1933 C.ar    1  ****1      -0.0194
     17 C14        -3.3693    0.3004   -4.5803 C.ar    1  ****1      -0.0194
     18 C15        -0.2321   -3.4163   -3.4414 C.ar    1  ****1      -0.0543
     19 C16        -1.0045   -3.6905   -5.7169 C.ar    1  ****1      -0.0543
     20 C17        -3.2226    4.5719   -2.9672 C.3     1  ****1       0.0325
     21 C18        -2.6411    3.1463   -3.1248 C.3     1  ****1       0.1022
     22 C19        -6.8866   -3.7584   -1.8503 C.ar    1  ****1      -0.0196
     23 C20        -7.0172   -4.6429   -4.0945 C.ar    1  ****1      -0.0196
     24 C21         0.9594   -2.8562   -3.9177 C.ar    1  ****1      -0.0612
     25 C22         0.1664   -3.0929   -6.1905 C.ar    1  ****1      -0.0612
     26 C23        -7.6124   -4.4203   -2.8501 C.ar    1  ****1       0.1169
     27 C24         1.1429   -2.6589   -5.2899 C.ar    1  ****1      -0.0617
     28 C25        -3.0279    6.0983   -0.9655 C.3     1  ****1      -0.0129
     29 C26        -4.8013    4.2997   -1.0115 C.3     1  ****1      -0.0129
@<TRIPOS>BOND
     1     1    13    1
     2     1    21    1
     3     2    26    1
     4     3    20    1
     5     3    28    1
     6     3    29    1
     7     4     5    2
     8     4     6    1
     9     4     8    1
    10     5     7    1
    11     5     9    1
    12     6    10   ar
    13     6    11   ar
    14     7    12    1
    15     8    14   ar
    16     8    15   ar
    17     9    18   ar
    18     9    19   ar
    19    10    16   ar
    20    11    17   ar
    21    13    16   ar
    22    13    17   ar
    23    14    22   ar
    24    15    23   ar
    25    18    24   ar
    26    19    25   ar
    27    20    21    1
    28    22    26   ar
    29    23    26   ar
    30    24    27   ar
    31    25    27   ar

@<TRIPOS>MOLECULE
3ert_30
 29 31 0 0 0
SMALL
GASTEIGER
Energy = 0

@<TRIPOS>ATOM
      1 O1         -2.3927    2.2205   -2.6431 O.3     1  ****1      -0.4907
      2 O2         -9.0072   -4.6749   -2.2235 O.3     1  ****1      -0.5068
      3 N1         -3.9645    4.3846   -3.4918 N.3     1  ****1      -0.3051
      4 C1         -3.6098   -3.2417   -3.6046 C.2     1  ****1      -0.0070
      5 C2         -2.6644   -4.0481   -4.0978 C.2     1  ****1      -0.0322
      6 C3         -3.2421   -1.8120   -3.3057 C.ar    1  ****1      -0.0168
      7 C4         -2.9023   -5.5252   -4.2604 C.3     1  ****1      -0.0294
      8 C5         -5.0384   -3.6537   -3.3121 C.ar    1  ****1      -0.0168
      9 C6         -1.3234   -3.4744   -4.5068 C.ar    1  ****1      -0.0213
     10 C7         -2.5016   -1.4457   -2.1735 C.ar    1  ****1      -0.0506
     11 C8         -3.6761   -0.8653   -4.2290 C.ar    1  ****1      -0.0506
     12 C9         -1.9910   -6.2352   -5.3063 C.3     1  ****1      -0.0612
     13 C10        -2.6739    0.8646   -2.8273 C.ar    1  ****1       0.1206
     14 C11        -5.4971   -3.5037   -2.0033 C.ar    1  ****1      -0.0506
     15 C12        -5.9289   -4.1604   -4.2680 C.ar    1  ****1      -0.0506
     16 C13        -2.3108   -0.0920   -1.8730 C.ar    1  ****1      -0.0194
     17 C14        -3.3287    0.4661   -3.9978 C.ar    1  ****1      -0.0194
     18 C15        -1.2402   -2.3922   -5.3906 C.ar    1  ****1      -0.0543
     19 C16        -0.1443   -4.0745   -4.0694 C.ar    1  ****1      -0.0543
     20 C17        -3.3882    4.3415   -2.1211 C.3     1  ****1       0.0325
     21 C18        -3.1333    2.8999   -1.6199 C.3     1  ****1       0.1022
     22 C19        -6.8261   -3.7431   -1.6594 C.ar    1  ****1      -0.0196
     23 C20        -7.2204   -4.5524   -3.8777 C.ar    1  ****1      -0.0196
     24 C21        -0.0133   -1.9136   -5.8674 C.ar    1  ****1      -0.0612
     25 C22         1.0837   -3.6651   -4.5963 C.ar    1  ****1      -0.0612
     26 C23        -7.6958   -4.3267   -2.5816 C.ar    1  ****1       0.1169
     27 C24         1.1472   -2.5879   -5.4849 C.ar    1  ****1      -0.0617
     28 C25        -5.2485    3.6678   -3.7146 C.3     1  ****1      -0.0129
     29 C26        -3.9453    5.7572   -4.0601 C.3     1  ****1      -0.0129
@<TRIPOS>BOND
     1     1    13    1
     2     1    21    1
     3     2    26    1
     4     3    20    1
     5     3    28    1
     6     3    29    1
     7     4     5    2
     8     4     6    1
     9     4     8    1
    10     5     7    1
    11     5     9    1
    12     6    10   ar
    13     6    11   ar
    14     7    12    1
    15     8    14   ar
    16     8    15   ar
    17     9    18   ar
    18     9    19   ar
    19    10    16   ar
    20    11    17   ar
    21    13    16   ar
    22    13    17   ar
    23    14    22   ar
    24    15    23   ar
    25    18    24   ar
    26    19    25   ar
    27    20    21    1
    28    22    26   ar
    29    23    26   ar
    30    24    27   ar
    31    25    27   ar

@<TRIPOS>MOLECULE
3ert_33
 29 31 0 0 0
SMALL
GASTEIGER
Energy = 0

@<TRIPOS>ATOM
      1 O1         -1.9464    2.1770   -2.6275 O.3     1  ****1      -0.4907
      2 O2         -8.8450   -4.9333   -1.9206 O.3     1  ****1      -0.5068
      3 N1         -1.4101    4.4355   -0.6903 N.3     1  ****1      -0.3051
      4 C1         -3.6651   -3.1695   -3.5446 C.2     1  ****1      -0.0070
      5 C2         -2.8472   -4.0137   -4.1851 C.2     1  ****1      -0.0322
      6 C3         -3.1999   -1.7500   -3.3020 C.ar    1  ****1      -0.0168
      7 C4         -3.1756   -5.4508   -4.5155 C.3     1  ****1      -0.0294
      8 C5         -5.0325   -3.6186   -3.0853 C.ar    1  ****1      -0.0168
      9 C6         -1.5060   -3.4770   -4.6155 C.ar    1  ****1      -0.0213
     10 C7         -3.3865   -0.7725   -4.2854 C.ar    1  ****1      -0.0506
     11 C8         -2.5551   -1.4201   -2.1057 C.ar    1  ****1      -0.0506
     12 C9         -1.9097   -6.3401   -4.6644 C.3     1  ****1      -0.0612
     13 C10        -2.3130    0.8600   -2.8662 C.ar    1  ****1       0.1206
     14 C11        -5.1868   -4.3030   -1.8762 C.ar    1  ****1      -0.0506
     15 C12        -6.1456   -3.3607   -3.8891 C.ar    1  ****1      -0.0506
     16 C13        -2.9160    0.5265   -4.0794 C.ar    1  ****1      -0.0194
     17 C14        -2.0924   -0.1185   -1.8937 C.ar    1  ****1      -0.0194
     18 C15        -1.3579   -2.9127   -5.8838 C.ar    1  ****1      -0.0543
     19 C16        -0.4293   -3.5517   -3.7302 C.ar    1  ****1      -0.0543
     20 C17        -2.4694    4.3598   -1.7282 C.3     1  ****1       0.0325
     21 C18        -2.9719    2.9154   -1.9473 C.3     1  ****1       0.1022
     22 C19        -6.4496   -4.7627   -1.4887 C.ar    1  ****1      -0.0196
     23 C20        -7.4065   -3.8200   -3.5002 C.ar    1  ****1      -0.0196
     24 C21        -0.1228   -2.3748   -6.2526 C.ar    1  ****1      -0.0612
     25 C22         0.8121   -3.0415   -4.1143 C.ar    1  ****1      -0.0612
     26 C23        -7.5671   -4.5095   -2.2953 C.ar    1  ****1       0.1169
     27 C24         0.9592   -2.4412   -5.3687 C.ar    1  ****1      -0.0617
     28 C25        -0.3112    3.4389   -0.7715 C.3     1  ****1      -0.0129
     29 C26        -0.9259    5.8226   -0.5090 C.3     1  ****1      -0.0129
@<TRIPOS>BOND
     1     1    13    1
     2     1    21    1
     3     2    26    1
     4     3    20    1
     5     3    28    1
     6     3    29    1
     7     4     5    2
     8     4     6    1
     9     4     8    1
    10     5     7    1
    11     5     9    1
    12     6    10   ar
    13     6    11   ar
    14     7    12    1
    15     8    14   ar
    16     8    15   ar
    17     9    18   ar
    18     9    19   ar
    19    10    16   ar
    20    11    17   ar
    21    13    16   ar
    22    13    17   ar
    23    14    22   ar
    24    15    23   ar
    25    18    24   ar
    26    19    25   ar
    27    20    21    1
    28    22    26   ar
    29    23    26   ar
    30    24    27   ar
    31    25    27   ar

@<TRIPOS>MOLECULE
3ert_34
 29 31 0 0 0
SMALL
GASTEIGER
Energy = 0

@<TRIPOS>ATOM
      1 O1         -2.2542    2.2337   -2.9779 O.3     1  ****1      -0.4907
      2 O2         -8.8874   -4.7260   -1.9712 O.3     1  ****1      -0.5068
      3 N1         -2.6220    5.0893   -0.6081 N.3     1  ****1      -0.3051
      4 C1         -3.6514   -3.2405   -3.6922 C.2     1  ****1      -0.0070
      5 C2         -2.7710   -4.0647   -4.2828 C.2     1  ****1      -0.0322
      6 C3         -3.3133   -1.7860   -3.4622 C.ar    1  ****1      -0.0168
      7 C4         -3.0563   -5.5356   -4.5349 C.3     1  ****1      -0.0294
      8 C5         -5.0224   -3.6775   -3.2299 C.ar    1  ****1      -0.0168
      9 C6         -1.4549   -3.4611   -4.7322 C.ar    1  ****1      -0.0213
     10 C7         -4.0615   -0.7861   -4.0919 C.ar    1  ****1      -0.0506
     11 C8         -2.2530   -1.4388   -2.6218 C.ar    1  ****1      -0.0506
     12 C9         -1.8648   -6.4501   -4.1570 C.3     1  ****1      -0.0612
     13 C10        -2.6086    0.8964   -3.1357 C.ar    1  ****1       0.1206
     14 C11        -5.3411   -3.6374   -1.8692 C.ar    1  ****1      -0.0506
     15 C12        -5.9744   -4.1044   -4.1586 C.ar    1  ****1      -0.0506
     16 C13        -3.7188    0.5575   -3.9145 C.ar    1  ****1      -0.0194
     17 C14        -1.8527   -0.1051   -2.5196 C.ar    1  ****1      -0.0194
     18 C15        -1.4514   -2.6510   -5.8715 C.ar    1  ****1      -0.0543
     19 C16        -0.2561   -3.6686   -4.0390 C.ar    1  ****1      -0.0543
     20 C17        -2.0481    4.2576   -1.6949 C.3     1  ****1       0.0325
     21 C18        -2.5534    2.7941   -1.6877 C.3     1  ****1       0.1022
     22 C19        -6.6199   -4.0026   -1.4374 C.ar    1  ****1      -0.0196
     23 C20        -7.2503   -4.4728   -3.7238 C.ar    1  ****1      -0.0196
     24 C21        -0.2656   -2.0629   -6.3213 C.ar    1  ****1      -0.0612
     25 C22         0.9441   -3.1418   -4.5283 C.ar    1  ****1      -0.0612
     26 C23        -7.5873   -4.4000   -2.3691 C.ar    1  ****1       0.1169
     27 C24         0.9376   -2.3183   -5.6576 C.ar    1  ****1      -0.0617
     28 C25        -2.3300    4.6066    0.7641 C.3     1  ****1      -0.0129
     29 C26        -2.4043    6.5453   -0.8137 C.3     1  ****1      -0.0129
@<TRIPOS>BOND
     1     1    13    1
     2     1    21    1
     3     2    26    1
     4     3    20    1
     5     3    28    1
     6     3    29    1
     7     4     5    2
     8     4     6    1
     9     4     8    1
    10     5     7    1
    11     5     9    1
    12     6    10   ar
    13     6    11   ar
    14     7    12    1
    15     8    14   ar
    16     8    15   ar
    17     9    18   ar
    18     9    19   ar
    19    10    16   ar
    20    11    17   ar
    21    13    16   ar
    22    13    17   ar
    23    14    22   ar
    24    15    23   ar
    25    18    24   ar
    26    19    25   ar
    27    20    21    1
    28    22    26   ar
    29    23    26   ar
    30    24    27   ar
    31    25    27   ar

@<TRIPOS>MOLECULE
3ert_35
 29 31 0 0 0
SMALL
GASTEIGER
Energy = 0

@<TRIPOS>ATOM
      1 O1         -1.9726    2.0031   -2.4290 O.3     1  ****1      -0.4907
      2 O2         -8.9895   -4.8096   -2.0800 O.3     1  ****1      -0.5068
      3 N1         -2.6605    5.8343   -2.7189 N.3     1  ****1      -0.3051
      4 C1         -3.6954   -3.3281   -3.6948 C.2     1  ****1      -0.0070
      5 C2         -2.7606   -4.1365   -4.2207 C.2     1  ****1      -0.0322
      6 C3         -3.2700   -1.9119   -3.3705 C.ar    1  ****1      -0.0168
      7 C4         -2.9704   -5.5926   -4.5507 C.3     1  ****1      -0.0294
      8 C5         -5.1350   -3.7102   -3.3908 C.ar    1  ****1      -0.0168
      9 C6         -1.4102   -3.5318   -4.5504 C.ar    1  ****1      -0.0213
     10 C7         -3.3469   -0.9185   -4.3452 C.ar    1  ****1      -0.0506
     11 C8         -2.7798   -1.6115   -2.0971 C.ar    1  ****1      -0.0506
     12 C9         -1.6411   -6.3731   -4.3866 C.3     1  ****1      -0.0612
     13 C10        -2.4018    0.6937   -2.7604 C.ar    1  ****1       0.1206
     14 C11        -5.7424   -3.0769   -2.3012 C.ar    1  ****1      -0.0506
     15 C12        -5.8938   -4.6409   -4.1225 C.ar    1  ****1      -0.0506
     16 C13        -2.8451    0.3547   -4.0514 C.ar    1  ****1      -0.0194
     17 C14        -2.3615   -0.3111   -1.7804 C.ar    1  ****1      -0.0194
     18 C15        -1.3681   -2.7786   -5.7222 C.ar    1  ****1      -0.0543
     19 C16        -0.2392   -3.6972   -3.7952 C.ar    1  ****1      -0.0543
     20 C17        -2.0691    4.5213   -2.3008 C.3     1  ****1       0.0325
     21 C18        -2.6247    3.1990   -2.9404 C.3     1  ****1       0.1022
     22 C19        -7.0745   -3.3440   -1.9764 C.ar    1  ****1      -0.0196
     23 C20        -7.1629   -5.0512   -3.6788 C.ar    1  ****1      -0.0196
     24 C21        -0.1514   -2.2715   -6.1779 C.ar    1  ****1      -0.0612
     25 C22         0.9919   -3.2039   -4.2501 C.ar    1  ****1      -0.0612
     26 C23        -7.7511   -4.4033   -2.5849 C.ar    1  ****1       0.1169
     27 C24         1.0230   -2.4875   -5.4501 C.ar    1  ****1      -0.0617
     28 C25        -2.1052    7.0262   -2.0149 C.3     1  ****1      -0.0129
     29 C26        -2.8632    6.1145   -4.1627 C.3     1  ****1      -0.0129
@<TRIPOS>BOND
     1     1    13    1
     2     1    21    1
     3     2    26    1
     4     3    20    1
     5     3    28    1
     6     3    29    1
     7     4     5    2
     8     4     6    1
     9     4     8    1
    10     5     7    1
    11     5     9    1
    12     6    10   ar
    13     6    11   ar
    14     7    12    1
    15     8    14   ar
    16     8    15   ar
    17     9    18   ar
    18     9    19   ar
    19    10    16   ar
    20    11    17   ar
    21    13    16   ar
    22    13    17   ar
    23    14    22   ar
    24    15    23   ar
    25    18    24   ar
    26    19    25   ar
    27    20    21    1
    28    22    26   ar
    29    23    26   ar
    30    24    27   ar
    31    25    27   ar

@<TRIPOS>MOLECULE
3ert_39
 29 31 0 0 0
SMALL
GASTEIGER
Energy = 0

@<TRIPOS>ATOM
      1 O1         -2.9007    2.3150   -2.7853 O.3     1  ****1      -0.4907
      2 O2         -8.8821   -4.6406   -1.8538 O.3     1  ****1      -0.5068
      3 N1         -2.1097    5.2033   -0.3492 N.3     1  ****1      -0.3051
      4 C1         -3.5178   -3.2747   -3.4297 C.2     1  ****1      -0.0070
      5 C2         -2.7375   -4.0806   -4.1882 C.2     1  ****1      -0.0322
      6 C3         -3.0762   -1.8889   -2.9664 C.ar    1  ****1      -0.0168
      7 C4         -3.0731   -5.4978   -4.5793 C.3     1  ****1      -0.0294
      8 C5         -4.9249   -3.7085   -3.0233 C.ar    1  ****1      -0.0168
      9 C6         -1.4025   -3.6824   -4.7858 C.ar    1  ****1      -0.0213
     10 C7         -3.9609   -1.2028   -2.1281 C.ar    1  ****1      -0.0506
     11 C8         -1.8898   -1.2060   -3.3070 C.ar    1  ****1      -0.0506
     12 C9         -3.1716   -5.8037   -6.0995 C.3     1  ****1      -0.0612
     13 C10        -2.9181    0.9044   -2.7839 C.ar    1  ****1       0.1206
     14 C11        -5.1813   -4.7959   -2.1790 C.ar    1  ****1      -0.0506
     15 C12        -6.0339   -2.9882   -3.4863 C.ar    1  ****1      -0.0506
     16 C13        -3.8876    0.1885   -2.0689 C.ar    1  ****1      -0.0194
     17 C14        -1.9238    0.1833   -3.4661 C.ar    1  ****1      -0.0194
     18 C15        -1.3535   -2.9024   -5.9493 C.ar    1  ****1      -0.0543
     19 C16        -0.2082   -4.1039   -4.1980 C.ar    1  ****1      -0.0543
     20 C17        -2.2544    4.4355   -1.6234 C.3     1  ****1       0.0325
     21 C18        -2.9725    3.0627   -1.5369 C.3     1  ****1       0.1022
     22 C19        -6.4958   -5.2372   -2.0070 C.ar    1  ****1      -0.0196
     23 C20        -7.3069   -3.1972   -2.9516 C.ar    1  ****1      -0.0196
     24 C21        -0.1738   -2.2698   -6.3586 C.ar    1  ****1      -0.0612
     25 C22         0.9960   -3.5880   -4.6941 C.ar    1  ****1      -0.0612
     26 C23        -7.5687   -4.3704   -2.2527 C.ar    1  ****1       0.1169
     27 C24         1.0159   -2.6202   -5.7094 C.ar    1  ****1      -0.0617
     28 C25        -1.3798    6.4794   -0.5859 C.3     1  ****1      -0.0129
     29 C26        -3.3535    5.3755    0.4479 C.3     1  ****1      -0.0129
@<TRIPOS>BOND
     1     1    13    1
     2     1    21    1
     3     2    26    1
     4     3    20    1
     5     3    28    1
     6     3    29    1
     7     4     5    2
     8     4     6    1
     9     4     8    1
    10     5     7    1
    11     5     9    1
    12     6    10   ar
    13     6    11   ar
    14     7    12    1
    15     8    14   ar
    16     8    15   ar
    17     9    18   ar
    18     9    19   ar
    19    10    16   ar
    20    11    17   ar
    21    13    16   ar
    22    13    17   ar
    23    14    22   ar
    24    15    23   ar
    25    18    24   ar
    26    19    25   ar
    27    20    21    1
    28    22    26   ar
    29    23    26   ar
    30    24    27   ar
    31    25    27   ar

@<TRIPOS>MOLECULE
3ert_40
 29 31 0 0 0
SMALL
GASTEIGER
Energy = 0

@<TRIPOS>ATOM
      1 O1         -2.0907    2.0790   -2.6082 O.3     1  ****1      -0.4907
      2 O2         -8.8666   -4.7504   -1.9479 O.3     1  ****1      -0.5068
      3 N1         -3.0378    5.6479   -1.9406 N.3     1  ****1      -0.3051
      4 C1         -3.6008   -3.3130   -3.5916 C.2     1  ****1      -0.0070
      5 C2         -2.7036   -4.0791   -4.2362 C.2     1  ****1      -0.0322
      6 C3         -3.3220   -1.8486   -3.3667 C.ar    1  ****1      -0.0168
      7 C4         -2.9261   -5.5434   -4.4545 C.3     1  ****1      -0.0294
      8 C5         -4.9365   -3.7685   -3.0395 C.ar    1  ****1      -0.0168
      9 C6         -1.3759   -3.5443   -4.7436 C.ar    1  ****1      -0.0213
     10 C7         -3.3002   -0.9334   -4.4239 C.ar    1  ****1      -0.0506
     11 C8         -3.0686   -1.4480   -2.0552 C.ar    1  ****1      -0.0506
     12 C9         -3.3800   -5.9654   -5.8829 C.3     1  ****1      -0.0612
     13 C10        -2.6269    0.8051   -2.8708 C.ar    1  ****1       0.1206
     14 C11        -5.1574   -4.8193   -2.1378 C.ar    1  ****1      -0.0506
     15 C12        -6.0247   -3.0155   -3.4771 C.ar    1  ****1      -0.0506
     16 C13        -3.0638    0.4189   -4.1472 C.ar    1  ****1      -0.0194
     17 C14        -2.7102   -0.1189   -1.8236 C.ar    1  ****1      -0.0194
     18 C15        -0.8915   -3.7427   -6.0500 C.ar    1  ****1      -0.0543
     19 C16        -0.5809   -2.8447   -3.8340 C.ar    1  ****1      -0.0543
     20 C17        -2.1283    4.5108   -2.2640 C.3     1  ****1       0.0325
     21 C18        -2.8685    3.2687   -2.8444 C.3     1  ****1       0.1022
     22 C19        -6.4657   -5.1659   -1.7727 C.ar    1  ****1      -0.0196
     23 C20        -7.3068   -3.2668   -3.0063 C.ar    1  ****1      -0.0196
     24 C21         0.4033   -3.3174   -6.3936 C.ar    1  ****1      -0.0612
     25 C22         0.6029   -2.2330   -4.2326 C.ar    1  ****1      -0.0612
     26 C23        -7.5470   -4.3992   -2.2308 C.ar    1  ****1       0.1169
     27 C24         1.1362   -2.5320   -5.4907 C.ar    1  ****1      -0.0617
     28 C25        -2.4361    6.6309   -1.0016 C.3     1  ****1      -0.0129
     29 C26        -3.7199    6.3119   -3.0822 C.3     1  ****1      -0.0129
@<TRIPOS>BOND
     1     1    13    1
     2     1    21    1
     3     2    26    1
     4     3    20    1
     5     3    28    1
     6     3    29    1
     7     4     5    2
     8     4     6    1
     9     4     8    1
    10     5     7    1
    11     5     9    1
    12     6    10   ar
    13     6    11   ar
    14     7    12    1
    15     8    14   ar
    16     8    15   ar
    17     9    18   ar
    18     9    19   ar
    19    10    16   ar
    20    11    17   ar
    21    13    16   ar
    22    13    17   ar
    23    14    22   ar
    24    15    23   ar
    25    18    24   ar
    26    19    25   ar
    27    20    21    1
    28    22    26   ar
    29    23    26   ar
    30    24    27   ar
    31    25    27   ar

@<TRIPOS>MOLECULE
3ert_41
 29 31 0 0 0
SMALL
GASTEIGER
Energy = 0

@<TRIPOS>ATOM
      1 O1         -2.4461    2.1775   -2.6061 O.3     1  ****1      -0.4907
      2 O2         -8.8975   -4.8469   -2.0176 O.3     1  ****1      -0.5068
      3 N1         -0.0965    4.9707   -1.9876 N.3     1  ****1      -0.3051
      4 C1         -3.6258   -3.3126   -3.5666 C.2     1  ****1      -0.0070
      5 C2         -2.7724   -4.1177   -4.2178 C.2     1  ****1      -0.0322
      6 C3         -3.2905   -1.8696   -3.2788 C.ar    1  ****1      -0.0168
      7 C4         -3.1018   -5.5659   -4.5305 C.3     1  ****1      -0.0294
      8 C5         -4.9969   -3.7551   -3.1129 C.ar    1  ****1      -0.0168
      9 C6         -1.4581   -3.5310   -4.6948 C.ar    1  ****1      -0.0213
     10 C7         -4.0964   -0.8727   -3.8340 C.ar    1  ****1      -0.0506
     11 C8         -2.2040   -1.5276   -2.4710 C.ar    1  ****1      -0.0506
     12 C9         -1.9256   -6.5092   -4.1886 C.3     1  ****1      -0.0612
     13 C10        -2.6938    0.8195   -2.8104 C.ar    1  ****1       0.1206
     14 C11        -5.3443   -3.7956   -1.7585 C.ar    1  ****1      -0.0506
     15 C12        -5.9323   -4.1068   -4.0873 C.ar    1  ****1      -0.0506
     16 C13        -3.8036    0.4679   -3.5815 C.ar    1  ****1      -0.0194
     17 C14        -1.8792   -0.1826   -2.2663 C.ar    1  ****1      -0.0194
     18 C15        -1.4824   -2.7220   -5.8345 C.ar    1  ****1      -0.0543
     19 C16        -0.2375   -3.7584   -4.0461 C.ar    1  ****1      -0.0543
     20 C17        -1.3042    4.2511   -2.4671 C.3     1  ****1       0.0325
     21 C18        -1.1271    2.7120   -2.4238 C.3     1  ****1       0.1022
     22 C19        -6.6438   -4.1547   -1.3843 C.ar    1  ****1      -0.0196
     23 C20        -7.2175   -4.4972   -3.7083 C.ar    1  ****1      -0.0196
     24 C21        -0.3070   -2.1482   -6.3270 C.ar    1  ****1      -0.0612
     25 C22         0.9490   -3.2328   -4.5705 C.ar    1  ****1      -0.0612
     26 C23        -7.5878   -4.4994   -2.3610 C.ar    1  ****1       0.1169
     27 C24         0.9144   -2.4124   -5.7017 C.ar    1  ****1      -0.0617
     28 C25         1.0278    4.9680   -2.9542 C.3     1  ****1      -0.0129
     29 C26        -0.3778    6.3217   -1.4411 C.3     1  ****1      -0.0129
@<TRIPOS>BOND
     1     1    13    1
     2     1    21    1
     3     2    26    1
     4     3    20    1
     5     3    28    1
     6     3    29    1
     7     4     5    2
     8     4     6    1
     9     4     8    1
    10     5     7    1
    11     5     9    1
    12     6    10   ar
    13     6    11   ar
    14     7    12    1
    15     8    14   ar
    16     8    15   ar
    17     9    18   ar
    18     9    19   ar
    19    10    16   ar
    20    11    17   ar
    21    13    16   ar
    22    13    17   ar
    23    14    22   ar
    24    15    23   ar
    25    18    24   ar
    26    19    25   ar
    27    20    21    1
    28    22    26   ar
    29    23    26   ar
    30    24    27   ar
    31    25    27   ar

