@<TRIPOS>MOLECULE
3a.sdf
41  46  1  0  0
SMALL
FORMAL_CHARGES
@<TRIPOS>ATOM
    1 N1         1.1504    -0.7834     0.0826 N.ar       1 ****  0
    2 C1         1.1822     0.5360    -0.0797 C.ar       1 ****  0
    3 N2         0.0520     1.2261    -0.1862 N.ar       1 ****  0
    4 C2        -1.1354     0.6373    -0.1347 C.ar       1 ****  0
    5 C3        -1.1862    -0.7385     0.0345 C.ar       1 ****  0
    6 C4         0.0022    -1.4436     0.1427 C.ar       1 ****  0
    7 N3        -2.3759     1.4005    -0.2503 N.pl3      1 ****  0
    8 C5        -3.6103     0.6513    -0.1778 C.2        1 ****  0
    9 N4        -3.6265    -0.6850    -0.0129 N.am       1 ****  0
   10 C6        -2.4681    -1.4280     0.0973 C.2        1 ****  0
   11 N5        -4.7789     1.1300    -0.2559 N.2        1 ****  0
   12 C7        -5.7907     0.0854    -0.1429 C.3        1 ****  0
   13 C8        -4.9398    -1.2235     0.0327 C.3        1 ****  0
   14 N6         2.4333     1.2882    -0.1463 N.pl3      1 ****  0
   15 C9        -2.3770     2.8606    -0.4312 C.ar       1 ****  0
   16 C10       -1.1820     3.5686    -0.4996 C.ar       1 ****  0
   17 C11       -1.1839     4.9466    -0.6705 C.ar       1 ****  0
   18 C12       -2.3879     5.6295    -0.7746 C.ar       1 ****  0
   19 C13       -3.5898     4.9355    -0.7078 C.ar       1 ****  0
   20 C14       -3.5766     3.5561    -0.5367 C.ar       1 ****  0
   21 N7        -4.8321     5.6023    -0.8100 N.am       1 ****  0
   22 C15       -4.9545     7.0006    -0.9840 C.2        1 ****  0
   23 C16       -6.2854     7.5945    -1.0775 C.2        1 ****  0
   24 C17       -6.4146     8.9092    -1.2409 C.2        1 ****  0
   25 O1        -3.9616     7.7331    -1.0587 O.2        1 ****  0
   26 C18        3.6914     0.5523    -0.0280 C.ar       1 ****  0
   27 C19        4.8727     1.2814    -0.0906 C.ar       1 ****  0
   28 C20        6.0987     0.6386     0.0168 C.ar       1 ****  0
   29 C21        6.1531    -0.7378     0.1876 C.ar       1 ****  0
   30 C22        4.9780    -1.4742     0.2510 C.ar       1 ****  0
   31 C23        3.7529    -0.8274     0.1431 C.ar       1 ****  0
   32 O2         4.8201     2.6658    -0.2617 O.3        1 ****  0
   33 N8         7.4195    -1.3812     0.2966 N.pl3      1 ****  0
   34 C24        8.1402    -0.5608     1.3087 C.3        1 ****  0
   35 C25        9.5888    -1.0475     1.4936 C.3        1 ****  0
   36 N9        10.3311    -0.7410     0.2816 N.3        1 ****  0
   37 C26        9.6434    -1.3365    -0.8527 C.3        1 ****  0
   38 C27        8.1877    -0.8324    -0.8545 C.3        1 ****  0
   39 C28       11.7011    -1.2580     0.3782 C.3        1 ****  0
   40 O3        -2.5173    -2.6535     0.2472 O.2        1 ****  0
   41 C29        6.1447     3.2108    -0.2978 C.3        1 ****  0
@<TRIPOS>BOND
    1     1     2 ar
    2     2     3 ar
    3     2    14 1
    4     3     4 ar
    5     4     5 ar
    6     4     7 1
    7     5     6 ar
    8     6     1 ar
    9     7     8 1
   10     7    15 1
   11     8     9 1
   12     8    11 2
   13     9    10 am
   14    10     5 1
   15    10    40 2
   16    11    12 1
   17    12    13 1
   18    13     9 1
   19    14    26 1
   20    15    16 ar
   21    16    17 ar
   22    17    18 ar
   23    18    19 ar
   24    19    20 ar
   25    19    21 1
   26    20    15 ar
   27    21    22 am
   28    22    23 1
   29    22    25 2
   30    23    24 2
   31    26    27 ar
   32    27    28 ar
   33    27    32 1
   34    28    29 ar
   35    29    30 ar
   36    29    33 1
   37    30    31 ar
   38    31    26 ar
   39    32    41 1
   40    33    34 1
   41    34    35 1
   42    35    36 1
   43    36    37 1
   44    36    39 1
   45    37    38 1
   46    38    33 1
@<TRIPOS>SUBSTRUCTURE
1   ****   1
@<TRIPOS>MOLECULE
3b.sdf
42  47  1  0  0
SMALL
FORMAL_CHARGES
@<TRIPOS>ATOM
    1 N1         1.1644    -0.8094     0.0854 N.ar       1 ****  0
    2 C1         1.1947     0.5098    -0.0719 C.ar       1 ****  0
    3 N2         0.0631     1.1975    -0.1778 N.ar       1 ****  0
    4 C2        -1.1260     0.6109    -0.1293 C.ar       1 ****  0
    5 C3        -1.1738    -0.7627     0.0347 C.ar       1 ****  0
    6 C4         0.0153    -1.4674     0.1411 C.ar       1 ****  0
    7 N3        -2.3617     1.3786    -0.2439 N.pl3      1 ****  0
    8 C5        -3.6365     0.6496    -0.1752 C.2        1 ****  0
    9 N4        -3.6325    -0.7620    -0.0006 N.am       1 ****  0
   10 C6        -2.4381    -1.4597     0.0963 C.2        1 ****  0
   11 N5        -4.7414     1.2830    -0.2738 N.2        1 ****  0
   12 C7        -6.0206     0.6324    -0.2161 C.3        1 ****  0
   13 C8        -4.8585    -1.4946     0.0860 C.3        1 ****  0
   14 N6         2.4445     1.2642    -0.1313 N.pl3      1 ****  0
   15 C9        -2.3264     2.8565    -0.4244 C.ar       1 ****  0
   16 C10       -1.1144     3.5364    -0.4890 C.ar       1 ****  0
   17 C11       -1.0775     4.9146    -0.6573 C.ar       1 ****  0
   18 C12       -2.2608     5.6325    -0.7633 C.ar       1 ****  0
   19 C13       -3.4801     4.9699    -0.7008 C.ar       1 ****  0
   20 C14       -3.5026     3.5909    -0.5324 C.ar       1 ****  0
   21 N7        -4.7063     5.6647    -0.8039 N.am       1 ****  0
   22 C15       -4.7999     7.0640    -0.9737 C.2        1 ****  0
   23 C16       -6.1196     7.6832    -1.0677 C.2        1 ****  0
   24 C17       -6.2251     9.0004    -1.2270 C.2        1 ****  0
   25 O1        -3.7923     7.7765    -1.0441 O.2        1 ****  0
   26 C18        3.7038     0.5300    -0.0109 C.ar       1 ****  0
   27 C19        4.8836     1.2621    -0.0646 C.ar       1 ****  0
   28 C20        6.1108     0.6218     0.0460 C.ar       1 ****  0
   29 C21        6.1677    -0.7551     0.2111 C.ar       1 ****  0
   30 C22        4.9939    -1.4945     0.2655 C.ar       1 ****  0
   31 C23        3.7677    -0.8503     0.1545 C.ar       1 ****  0
   32 O2         4.8281     2.6470    -0.2293 O.3        1 ****  0
   33 N8         7.4352    -1.3966     0.3236 N.pl3      1 ****  0
   34 C24        8.1502    -0.5798     1.3425 C.3        1 ****  0
   35 C25        9.5978    -1.0677     1.5331 C.3        1 ****  0
   36 N9        10.3468    -0.7570     0.3261 N.3        1 ****  0
   37 C26        9.6642    -1.3462    -0.8147 C.3        1 ****  0
   38 C27        8.2086    -0.8417    -0.8211 C.3        1 ****  0
   39 C28       11.7155    -1.2768     0.4276 C.3        1 ****  0
   40 O3        -2.4552    -2.6864     0.2437 O.2        1 ****  0
   41 C29        6.1511     3.1960    -0.2561 C.3        1 ****  0
   42 C30       -5.9239    -0.5915     0.6790 C.3        1 ****  0
@<TRIPOS>BOND
    1     1     2 ar
    2     2     3 ar
    3     2    14 1
    4     3     4 ar
    5     4     5 ar
    6     4     7 1
    7     5     6 ar
    8     6     1 ar
    9     7     8 1
   10     7    15 1
   11     8     9 1
   12     8    11 2
   13     9    10 am
   14    10     5 1
   15    10    40 2
   16    11    12 1
   17    13     9 1
   18    13    42 1
   19    14    26 1
   20    15    16 ar
   21    16    17 ar
   22    17    18 ar
   23    18    19 ar
   24    19    20 ar
   25    19    21 1
   26    20    15 ar
   27    21    22 am
   28    22    23 1
   29    22    25 2
   30    23    24 2
   31    26    27 ar
   32    27    28 ar
   33    27    32 1
   34    28    29 ar
   35    29    30 ar
   36    29    33 1
   37    30    31 ar
   38    31    26 ar
   39    32    41 1
   40    33    34 1
   41    34    35 1
   42    35    36 1
   43    36    37 1
   44    36    39 1
   45    37    38 1
   46    38    33 1
   47    42    12 1
@<TRIPOS>SUBSTRUCTURE
1   ****   1
@<TRIPOS>MOLECULE
3c.sdf
43  48  1  0  0
SMALL
FORMAL_CHARGES
@<TRIPOS>ATOM
    1 N1         5.6686     1.6726     1.7904 N.ar       1 ****  0
    2 C1         6.0181     0.5032     1.2664 C.ar       1 ****  0
    3 N2         5.1002    -0.2822     0.7130 N.ar       1 ****  0
    4 C2         3.8191     0.0555     0.6553 C.ar       1 ****  0
    5 C3         3.4407     1.2703     1.1975 C.ar       1 ****  0
    6 C4         4.4075     2.0793     1.7724 C.ar       1 ****  0
    7 N3         2.8249    -0.8190     0.0471 N.pl3      1 ****  0
    8 C5         1.3985    -0.3786     0.0135 C.2        1 ****  0
    9 N4         1.0669     0.9358     0.5884 N.am       1 ****  0
   10 C6         2.0732     1.7031     1.1689 C.2        1 ****  0
   11 N5         0.5811    -1.2150    -0.5187 N.2        1 ****  0
   12 C7        -0.8485    -1.2171    -0.7233 C.3        1 ****  0
   13 C8        -0.2120     1.6126     0.5470 C.3        1 ****  0
   14 N6         7.3984     0.0243     1.2676 N.pl3      1 ****  0
   15 C9         3.2490    -2.1463    -0.5268 C.ar       1 ****  0
   16 C10        4.5805    -2.5478    -0.4863 C.ar       1 ****  0
   17 C11        4.9782    -3.7707    -1.0130 C.ar       1 ****  0
   18 C12        4.0421    -4.6165    -1.5922 C.ar       1 ****  0
   19 C13        2.7080    -4.2339    -1.6425 C.ar       1 ****  0
   20 C14        2.3273    -3.0086    -1.1120 C.ar       1 ****  0
   21 N7         1.7176    -5.0586    -2.2205 N.am       1 ****  0
   22 C15        1.9829    -6.3219    -2.7889 C.2        1 ****  0
   23 C16        0.8782    -7.0905    -3.3579 C.2        1 ****  0
   24 C17        1.1079    -8.2846    -3.8988 C.2        1 ****  0
   25 O1         3.1255    -6.7922    -2.8163 O.2        1 ****  0
   26 C18        8.4270     0.8731     1.8696 C.ar       1 ****  0
   27 C19        9.7346     0.4029     1.8624 C.ar       1 ****  0
   28 C20       10.7553     1.1626     2.4185 C.ar       1 ****  0
   29 C21       10.4767     2.3984     2.9857 C.ar       1 ****  0
   30 C22        9.1732     2.8762     2.9969 C.ar       1 ****  0
   31 C23        8.1542     2.1129     2.4398 C.ar       1 ****  0
   32 O2        10.0168    -0.8393     1.2922 O.3        1 ****  0
   33 N8        11.5365     3.1649     3.5525 N.pl3      1 ****  0
   34 C24       12.2496     2.1859     4.4185 C.3        1 ****  0
   35 C25       13.5056     2.8113     5.0522 C.3        1 ****  0
   36 N9        14.4820     3.0403     3.9995 N.3        1 ****  0
   37 C26       13.8702     3.8541     2.9612 C.3        1 ****  0
   38 C27       12.5817     3.1515     2.4921 C.3        1 ****  0
   39 C28       15.6692     3.7112     4.5424 C.3        1 ****  0
   40 O3         1.7846     2.8039     1.6509 O.2        1 ****  0
   41 C29       11.4172    -1.1240     1.3935 C.3        1 ****  0
   42 C30       -1.4515     0.7701     0.5083 C.3        1 ****  0
   43 C31       -1.5246     0.1123    -0.8281 C.3        1 ****  0
@<TRIPOS>BOND
    1     1     2 ar
    2     2     3 ar
    3     2    14 1
    4     3     4 ar
    5     4     5 ar
    6     4     7 1
    7     5     6 ar
    8     6     1 ar
    9     7     8 1
   10     7    15 1
   11     8     9 1
   12     8    11 2
   13     9    10 am
   14    10     5 1
   15    10    40 2
   16    11    12 1
   17    13     9 1
   18    13    42 1
   19    14    26 1
   20    15    16 ar
   21    16    17 ar
   22    17    18 ar
   23    18    19 ar
   24    19    20 ar
   25    19    21 1
   26    20    15 ar
   27    21    22 am
   28    22    23 1
   29    22    25 2
   30    23    24 2
   31    26    27 ar
   32    27    28 ar
   33    27    32 1
   34    28    29 ar
   35    29    30 ar
   36    29    33 1
   37    30    31 ar
   38    31    26 ar
   39    32    41 1
   40    33    34 1
   41    34    35 1
   42    35    36 1
   43    36    37 1
   44    36    39 1
   45    37    38 1
   46    38    33 1
   47    42    43 1
   48    43    12 1
@<TRIPOS>SUBSTRUCTURE
1   ****   1
@<TRIPOS>MOLECULE
3d.sdf
41  46  1  0  0
SMALL
FORMAL_CHARGES
@<TRIPOS>ATOM
    1 N1         1.1479    -0.7561     0.1022 N.ar       1 ****  0
    2 C1         1.1715     0.5627    -0.0688 C.ar       1 ****  0
    3 N2         0.0371     1.2447    -0.1877 N.ar       1 ****  0
    4 C2        -1.1454     0.6490    -0.1378 C.ar       1 ****  0
    5 C3        -1.1885    -0.7282     0.0411 C.ar       1 ****  0
    6 C4         0.0033    -1.4242     0.1595 C.ar       1 ****  0
    7 N3        -2.3931     1.4015    -0.2629 N.pl3      1 ****  0
    8 C5        -3.6114     0.6387    -0.1864 C.ar       1 ****  0
    9 N4        -3.6210    -0.6676    -0.0158 N.ar       1 ****  0
   10 C6        -2.4725    -1.4199     0.1029 C.2        1 ****  0
   11 N5        -4.8577     1.0851    -0.2680 N.ar       1 ****  0
   12 C7        -5.6609     0.0292    -0.1444 C.ar       1 ****  0
   13 C8        -4.8680    -1.1051     0.0187 C.ar       1 ****  0
   14 N6         2.4165     1.3249    -0.1270 N.pl3      1 ****  0
   15 C9        -2.4130     2.8555    -0.4540 C.ar       1 ****  0
   16 C10       -1.2277     3.5784    -0.5274 C.ar       1 ****  0
   17 C11       -1.2491     4.9549    -0.7090 C.ar       1 ****  0
   18 C12       -2.4629     5.6195    -0.8182 C.ar       1 ****  0
   19 C13       -3.6553     4.9095    -0.7461 C.ar       1 ****  0
   20 C14       -3.6232     3.5316    -0.5648 C.ar       1 ****  0
   21 N7        -4.9065     5.5596    -0.8521 N.am       1 ****  0
   22 C15       -5.0468     6.9557    -1.0345 C.2        1 ****  0
   23 C16       -6.3852     7.5329    -1.1273 C.2        1 ****  0
   24 C17       -6.5309     8.8451    -1.2974 C.2        1 ****  0
   25 O1        -4.0634     7.7001    -1.1166 O.2        1 ****  0
   26 C18        3.6805     0.6035     0.0110 C.ar       1 ****  0
   27 C19        4.8538     1.3463    -0.0391 C.ar       1 ****  0
   28 C20        6.0860     0.7193     0.0894 C.ar       1 ****  0
   29 C21        6.1542    -0.6554     0.2693 C.ar       1 ****  0
   30 C22        4.9868    -1.4052     0.3201 C.ar       1 ****  0
   31 C23        3.7553    -0.7743     0.1909 C.ar       1 ****  0
   32 O2         4.7859     2.7292    -0.2173 O.3        1 ****  0
   33 N8         7.4265    -1.2850     0.4014 N.pl3      1 ****  0
   34 C24        8.1241    -0.4544     1.4211 C.3        1 ****  0
   35 C25        9.5714    -0.9347     1.6344 C.3        1 ****  0
   36 N9        10.3349    -0.6331     0.4339 N.3        1 ****  0
   37 C26        9.6675    -1.2327    -0.7108 C.3        1 ****  0
   38 C27        8.2098    -0.7339    -0.7380 C.3        1 ****  0
   39 C28       11.7030    -1.1505     0.5568 C.3        1 ****  0
   40 O3        -2.5277    -2.6445     0.2602 O.2        1 ****  0
   41 C29        6.1032     3.2917    -0.2365 C.3        1 ****  0
@<TRIPOS>BOND
    1     1     2 ar
    2     2     3 ar
    3     2    14 1
    4     3     4 ar
    5     4     5 ar
    6     4     7 1
    7     5     6 ar
    8     6     1 ar
    9     7     8 1
   10     7    15 1
   11     8     9 ar
   12     8    11 ar
   13     9    10 am
   14    10     5 1
   15    10    40 2
   16    11    12 ar
   17    12    13 ar
   18    13     9 ar
   19    14    26 1
   20    15    16 ar
   21    16    17 ar
   22    17    18 ar
   23    18    19 ar
   24    19    20 ar
   25    19    21 1
   26    20    15 ar
   27    21    22 am
   28    22    23 1
   29    22    25 2
   30    23    24 2
   31    26    27 ar
   32    27    28 ar
   33    27    32 1
   34    28    29 ar
   35    29    30 ar
   36    29    33 1
   37    30    31 ar
   38    31    26 ar
   39    32    41 1
   40    33    34 1
   41    34    35 1
   42    35    36 1
   43    36    37 1
   44    36    39 1
   45    37    38 1
   46    38    33 1
@<TRIPOS>SUBSTRUCTURE
1   ****   1
@<TRIPOS>MOLECULE
3e.sdf
45  51  1  0  0
SMALL
FORMAL_CHARGES
@<TRIPOS>ATOM
    1 N1         1.1370    -0.7616     0.0685 N.ar       1 ****  0
    2 C1         1.1626     0.5605    -0.0726 C.ar       1 ****  0
    3 N2         0.0294     1.2465    -0.1723 N.ar       1 ****  0
    4 C2        -1.1544     0.6511    -0.1329 C.ar       1 ****  0
    5 C3        -1.1988    -0.7292     0.0146 C.ar       1 ****  0
    6 C4        -0.0075    -1.4297     0.1143 C.ar       1 ****  0
    7 N3        -2.3995     1.4129    -0.2382 N.pl3      1 ****  0
    8 C5        -3.6225     0.6563    -0.1763 C.ar       1 ****  0
    9 N4        -3.6258    -0.6611    -0.0341 N.ar       1 ****  0
   10 C6        -2.4809    -1.4226     0.0641 C.2        1 ****  0
   11 N5        -4.8721     1.1277    -0.2449 N.ar       1 ****  0
   12 C7        -5.6578     0.0619    -0.1389 C.ar       1 ****  0
   13 C8        -4.8820    -1.0623    -0.0064 C.ar       1 ****  0
   14 N6         2.4089     1.3210    -0.1203 N.pl3      1 ****  0
   15 C9        -2.4105     2.8703    -0.3953 C.ar       1 ****  0
   16 C10       -1.2210     3.5879    -0.4524 C.ar       1 ****  0
   17 C11       -1.2340     4.9682    -0.6013 C.ar       1 ****  0
   18 C12       -2.4439     5.6421    -0.6944 C.ar       1 ****  0
   19 C13       -3.6403     4.9374    -0.6389 C.ar       1 ****  0
   20 C14       -3.6164     3.5558    -0.4897 C.ar       1 ****  0
   21 N7        -4.8870     5.5959    -0.7306 N.am       1 ****  0
   22 C15       -5.0188     6.9956    -0.8814 C.2        1 ****  0
   23 C16       -6.3530     7.5819    -0.9663 C.2        1 ****  0
   24 C17       -6.4901     8.8983    -1.1076 C.2        1 ****  0
   25 O1        -4.0310     7.7361    -0.9427 O.2        1 ****  0
   26 C18        3.6689     0.5903    -0.0053 C.ar       1 ****  0
   27 C19        4.8471     1.3256    -0.0488 C.ar       1 ****  0
   28 C20        6.0745     0.6858     0.0573 C.ar       1 ****  0
   29 C21        6.1335    -0.6927     0.2077 C.ar       1 ****  0
   30 C22        4.9618    -1.4355     0.2520 C.ar       1 ****  0
   31 C23        3.7351    -0.7916     0.1454 C.ar       1 ****  0
   32 O2         4.7908     2.7124    -0.1988 O.3        1 ****  0
   33 N8         7.4019    -1.3293     0.3146 N.pl3      1 ****  0
   34 C24        8.1080    -0.5178     1.3442 C.3        1 ****  0
   35 C25        9.5635    -0.9828     1.5261 C.3        1 ****  0
   36 N9        10.3030    -0.6413     0.3223 N.3        1 ****  0
   37 C26        9.6327    -1.2359    -0.8221 C.3        1 ****  0
   38 C27        8.1695    -0.7565    -0.8255 C.3        1 ****  0
   39 C28       11.6840    -1.1271     0.4162 C.3        1 ****  0
   40 O3        -2.5329    -2.6504     0.1929 O.2        1 ****  0
   41 C29        6.1140     3.2624    -0.2173 C.3        1 ****  0
   42 C30       -7.0414    -0.0089    -0.1460 C.ar       1 ****  0
   43 C31       -7.6087    -1.2756    -0.0118 C.ar       1 ****  0
   44 C32       -6.8126    -2.4179     0.1226 C.ar       1 ****  0
   45 C33       -5.4210    -2.3294     0.1272 C.ar       1 ****  0
@<TRIPOS>BOND
    1     1     2 ar
    2     2     3 ar
    3     2    14 1
    4     3     4 ar
    5     4     5 ar
    6     4     7 1
    7     5     6 ar
    8     6     1 ar
    9     7     8 1
   10     7    15 1
   11     8     9 ar
   12     8    11 ar
   13     9    10 am
   14    10     5 1
   15    10    40 2
   16    11    12 ar
   17    12    13 ar
   18    12    42 ar
   19    13     9 ar
   20    14    26 1
   21    15    16 ar
   22    16    17 ar
   23    17    18 ar
   24    18    19 ar
   25    19    20 ar
   26    19    21 1
   27    20    15 ar
   28    21    22 am
   29    22    23 1
   30    22    25 2
   31    23    24 2
   32    26    27 ar
   33    27    28 ar
   34    27    32 1
   35    28    29 ar
   36    29    30 ar
   37    29    33 1
   38    30    31 ar
   39    31    26 ar
   40    32    41 1
   41    33    34 1
   42    34    35 1
   43    35    36 1
   44    36    37 1
   45    36    39 1
   46    37    38 1
   47    38    33 1
   48    42    43 ar
   49    43    44 ar
   50    44    45 ar
   51    45    13 ar
@<TRIPOS>SUBSTRUCTURE
1   ****   1
@<TRIPOS>MOLECULE
3f.sdf
40  45  1  0  0
SMALL
FORMAL_CHARGES
@<TRIPOS>ATOM
    1 N1         1.1538    -0.7439     0.0914 N.ar       1 ****  0
    2 C1         1.1740     0.5752    -0.0773 C.ar       1 ****  0
    3 N2         0.0374     1.2526    -0.1948 N.ar       1 ****  0
    4 C2        -1.1424     0.6522    -0.1431 C.ar       1 ****  0
    5 C3        -1.1810    -0.7255     0.0342 C.ar       1 ****  0
    6 C4         0.0128    -1.4173     0.1488 C.ar       1 ****  0
    7 N3        -2.3904     1.3995    -0.2634 N.pl3      1 ****  0
    8 C5        -3.6066     0.6345    -0.1804 C.ar       1 ****  0
    9 N4        -3.6121    -0.6721    -0.0107 N.ar       1 ****  0
   10 C6        -2.4614    -1.4212     0.0981 C.2        1 ****  0
   11 N5        -4.8542     1.0780    -0.2539 N.ar       1 ****  0
   12 C7        -5.6541     0.0202    -0.1253 C.ar       1 ****  0
   13 C8        -4.8577    -1.1125     0.0318 C.ar       1 ****  0
   14 N6         2.4179     1.3412    -0.1319 N.pl3      1 ****  0
   15 C9        -2.4111     2.8514    -0.4553 C.ar       1 ****  0
   16 C10       -1.2254     3.5728    -0.5355 C.ar       1 ****  0
   17 C11       -1.2447     4.9485    -0.7199 C.ar       1 ****  0
   18 C12       -2.4581     5.6135    -0.8255 C.ar       1 ****  0
   19 C13       -3.6512     4.9052    -0.7466 C.ar       1 ****  0
   20 C14       -3.6212     3.5278    -0.5622 C.ar       1 ****  0
   21 N7        -4.8998     5.5573    -0.8491 N.am       1 ****  0
   22 C15       -5.0345     6.9529    -1.0327 C.2        1 ****  0
   23 C16       -6.3693     7.5354    -1.1242 C.2        1 ****  0
   24 C17       -6.5079     8.8480    -1.2957 C.2        1 ****  0
   25 O1        -4.0483     7.6934    -1.1167 O.2        1 ****  0
   26 C18        3.6782     0.6155     0.0091 C.ar       1 ****  0
   27 C19        4.8573     1.3495    -0.0356 C.ar       1 ****  0
   28 C20        6.0832     0.7110     0.0958 C.ar       1 ****  0
   29 C21        6.1389    -0.6645     0.2735 C.ar       1 ****  0
   30 C22        4.9665    -1.4054     0.3197 C.ar       1 ****  0
   31 C23        3.7423    -0.7629     0.1873 C.ar       1 ****  0
   32 O2         4.8042     2.7335    -0.2117 O.3        1 ****  0
   33 N8         7.4021    -1.3038     0.4061 N.pl3      1 ****  0
   34 C24        8.1074    -0.4788     1.4177 C.3        1 ****  0
   35 C25        9.5546    -0.9652     1.6155 C.3        1 ****  0
   36 O3        10.3032    -0.6872     0.4407 O.3        1 ****  0
   37 C26        9.6461    -1.2557    -0.6833 C.3        1 ****  0
   38 C27        8.1907    -0.7535    -0.7236 C.3        1 ****  0
   39 O4        -2.5115    -2.6468     0.2495 O.2        1 ****  0
   40 C28        6.1283     3.2818    -0.2252 C.3        1 ****  0
@<TRIPOS>BOND
    1     1     2 ar
    2     2     3 ar
    3     2    14 1
    4     3     4 ar
    5     4     5 ar
    6     4     7 1
    7     5     6 ar
    8     6     1 ar
    9     7     8 1
   10     7    15 1
   11     8     9 ar
   12     8    11 ar
   13     9    10 am
   14    10     5 1
   15    10    39 2
   16    11    12 ar
   17    12    13 ar
   18    13     9 ar
   19    14    26 1
   20    15    16 ar
   21    16    17 ar
   22    17    18 ar
   23    18    19 ar
   24    19    20 ar
   25    19    21 1
   26    20    15 ar
   27    21    22 am
   28    22    23 1
   29    22    25 2
   30    23    24 2
   31    26    27 ar
   32    27    28 ar
   33    27    32 1
   34    28    29 ar
   35    29    30 ar
   36    29    33 1
   37    30    31 ar
   38    31    26 ar
   39    32    40 1
   40    33    34 1
   41    34    35 1
   42    35    36 1
   43    36    37 1
   44    37    38 1
   45    38    33 1
@<TRIPOS>SUBSTRUCTURE
1   ****   1
@<TRIPOS>MOLECULE
3g.sdf
43  48  1  0  0
SMALL
FORMAL_CHARGES
@<TRIPOS>ATOM
    1 N1         1.1479    -0.7554     0.0981 N.ar       1 ****  0
    2 C1         1.1717     0.5634    -0.0726 C.ar       1 ****  0
    3 N2         0.0378     1.2456    -0.1908 N.ar       1 ****  0
    4 C2        -1.1452     0.6485    -0.1397 C.ar       1 ****  0
    5 C3        -1.1879    -0.7272     0.0388 C.ar       1 ****  0
    6 C4         0.0044    -1.4241     0.1560 C.ar       1 ****  0
    7 N3        -2.3925     1.4013    -0.2633 N.pl3      1 ****  0
    8 C5        -3.6105     0.6375    -0.1848 C.ar       1 ****  0
    9 N4        -3.6191    -0.6680    -0.0144 N.ar       1 ****  0
   10 C6        -2.4706    -1.4203     0.1019 C.2        1 ****  0
   11 N5        -4.8573     1.0838    -0.2643 N.ar       1 ****  0
   12 C7        -5.6596     0.0274    -0.1393 C.ar       1 ****  0
   13 C8        -4.8661    -1.1067     0.0223 C.ar       1 ****  0
   14 N6         2.4172     1.3245    -0.1296 N.pl3      1 ****  0
   15 C9        -2.4126     2.8549    -0.4547 C.ar       1 ****  0
   16 C10       -1.2270     3.5773    -0.5300 C.ar       1 ****  0
   17 C11       -1.2478     4.9535    -0.7123 C.ar       1 ****  0
   18 C12       -2.4614     5.6185    -0.8203 C.ar       1 ****  0
   19 C13       -3.6541     4.9092    -0.7462 C.ar       1 ****  0
   20 C14       -3.6226     3.5313    -0.5642 C.ar       1 ****  0
   21 N7        -4.9048     5.5601    -0.8511 N.am       1 ****  0
   22 C15       -5.0436     6.9561    -1.0340 C.2        1 ****  0
   23 C16       -6.3812     7.5349    -1.1263 C.2        1 ****  0
   24 C17       -6.5251     8.8471    -1.2969 C.2        1 ****  0
   25 O1        -4.0594     7.6994    -1.1170 O.2        1 ****  0
   26 C18        3.6790     0.5995     0.0095 C.ar       1 ****  0
   27 C19        4.8545     1.3388    -0.0366 C.ar       1 ****  0
   28 C20        6.0837     0.7071     0.0952 C.ar       1 ****  0
   29 C21        6.1474    -0.6681     0.2727 C.ar       1 ****  0
   30 C22        4.9782    -1.4151     0.3178 C.ar       1 ****  0
   31 C23        3.7496    -0.7790     0.1869 C.ar       1 ****  0
   32 O2         4.7929     2.7223    -0.2131 O.3        1 ****  0
   33 N8         7.4184    -1.2961     0.4101 N.pl3      1 ****  0
   34 C24        8.1067    -0.4470     1.4289 C.3        1 ****  0
   35 C25        9.5534    -0.9089     1.6738 C.3        1 ****  0
   36 C26       10.3491    -0.5914     0.4203 C.3        1 ****  0
   37 C27        9.6500    -1.2555    -0.7506 C.3        1 ****  0
   38 C28        8.1899    -0.7637    -0.7541 C.3        1 ****  0
   39 O3        -2.5248    -2.6448     0.2582 O.2        1 ****  0
   40 C29        6.1131     3.2791    -0.2281 C.3        1 ****  0
   41 N9        11.7411    -1.0543     0.5416 N.3        1 ****  0
   42 C30       11.7723    -2.5091     0.7568 C.3        1 ****  0
   43 C31       12.3877    -0.3739     1.6738 C.3        1 ****  0
@<TRIPOS>BOND
    1     1     2 ar
    2     2     3 ar
    3     2    14 1
    4     3     4 ar
    5     4     5 ar
    6     4     7 1
    7     5     6 ar
    8     6     1 ar
    9     7     8 1
   10     7    15 1
   11     8     9 ar
   12     8    11 ar
   13     9    10 am
   14    10     5 1
   15    10    39 2
   16    11    12 ar
   17    12    13 ar
   18    13     9 ar
   19    14    26 1
   20    15    16 ar
   21    16    17 ar
   22    17    18 ar
   23    18    19 ar
   24    19    20 ar
   25    19    21 1
   26    20    15 ar
   27    21    22 am
   28    22    23 1
   29    22    25 2
   30    23    24 2
   31    26    27 ar
   32    27    28 ar
   33    27    32 1
   34    28    29 ar
   35    29    30 ar
   36    29    33 1
   37    30    31 ar
   38    31    26 ar
   39    32    40 1
   40    33    34 1
   41    34    35 1
   42    35    36 1
   43    36    37 1
   44    36    41 1
   45    37    38 1
   46    38    33 1
   47    41    42 1
   48    41    43 1
@<TRIPOS>SUBSTRUCTURE
1   ****   1
@<TRIPOS>MOLECULE
3h.sdf
42  47  1  0  0
SMALL
FORMAL_CHARGES
@<TRIPOS>ATOM
    1 N1         1.1550    -0.7396     0.0894 N.ar       1 ****  0
    2 C1         1.1745     0.5794    -0.0788 C.ar       1 ****  0
    3 N2         0.0380     1.2559    -0.1964 N.ar       1 ****  0
    4 C2        -1.1421     0.6520    -0.1445 C.ar       1 ****  0
    5 C3        -1.1795    -0.7227     0.0319 C.ar       1 ****  0
    6 C4         0.0159    -1.4150     0.1465 C.ar       1 ****  0
    7 N3        -2.3894     1.3994    -0.2639 N.pl3      1 ****  0
    8 C5        -3.6049     0.6331    -0.1790 C.ar       1 ****  0
    9 N4        -3.6094    -0.6719    -0.0097 N.ar       1 ****  0
   10 C6        -2.4584    -1.4216     0.0959 C.2        1 ****  0
   11 N5        -4.8532     1.0773    -0.2499 N.ar       1 ****  0
   12 C7        -5.6522     0.0190    -0.1195 C.ar       1 ****  0
   13 C8        -4.8554    -1.1137     0.0357 C.ar       1 ****  0
   14 N6         2.4185     1.3458    -0.1321 N.pl3      1 ****  0
   15 C9        -2.4105     2.8493    -0.4558 C.ar       1 ****  0
   16 C10       -1.2244     3.5704    -0.5375 C.ar       1 ****  0
   17 C11       -1.2434     4.9458    -0.7223 C.ar       1 ****  0
   18 C12       -2.4569     5.6107    -0.8269 C.ar       1 ****  0
   19 C13       -3.6500     4.9027    -0.7467 C.ar       1 ****  0
   20 C14       -3.6204     3.5254    -0.5618 C.ar       1 ****  0
   21 N7        -4.8977     5.5548    -0.8484 N.am       1 ****  0
   22 C15       -5.0308     6.9501    -1.0320 C.2        1 ****  0
   23 C16       -6.3645     7.5341    -1.1235 C.2        1 ****  0
   24 C17       -6.5010     8.8468    -1.2952 C.2        1 ****  0
   25 O1        -4.0438     7.6895    -1.1162 O.2        1 ****  0
   26 C18        3.6765     0.6170     0.0098 C.ar       1 ****  0
   27 C19        4.8580     1.3476    -0.0339 C.ar       1 ****  0
   28 C20        6.0811     0.7045     0.0980 C.ar       1 ****  0
   29 C21        6.1320    -0.6722     0.2752 C.ar       1 ****  0
   30 C22        4.9575    -1.4092     0.3206 C.ar       1 ****  0
   31 C23        3.7365    -0.7613     0.1878 C.ar       1 ****  0
   32 O2         4.8073     2.7313    -0.2099 O.3        1 ****  0
   33 N8         7.3941    -1.3138     0.4075 N.pl3      1 ****  0
   34 C24        8.0877    -0.4878     1.4339 C.3        1 ****  0
   35 C25        9.5474    -0.9308     1.6306 C.3        1 ****  0
   36 N9        10.2854    -0.5905     0.4269 N.3        1 ****  0
   37 C26        9.6391    -1.2263    -0.7076 C.3        1 ****  0
   38 C27        8.1715    -0.7657    -0.7380 C.3        1 ****  0
   39 C28       11.6798    -1.0295     0.5375 C.3        1 ****  0
   40 O3        -2.5072    -2.6470     0.2446 O.2        1 ****  0
   41 C29        6.1307     3.2775    -0.2231 C.3        1 ****  0
   42 C30        6.0525     4.8031    -0.4176 C.3        1 ****  0
@<TRIPOS>BOND
    1     1     2 ar
    2     2     3 ar
    3     2    14 1
    4     3     4 ar
    5     4     5 ar
    6     4     7 1
    7     5     6 ar
    8     6     1 ar
    9     7     8 1
   10     7    15 1
   11     8     9 ar
   12     8    11 ar
   13     9    10 am
   14    10     5 1
   15    10    40 2
   16    11    12 ar
   17    12    13 ar
   18    13     9 ar
   19    14    26 1
   20    15    16 ar
   21    16    17 ar
   22    17    18 ar
   23    18    19 ar
   24    19    20 ar
   25    19    21 1
   26    20    15 ar
   27    21    22 am
   28    22    23 1
   29    22    25 2
   30    23    24 2
   31    26    27 ar
   32    27    28 ar
   33    27    32 1
   34    28    29 ar
   35    29    30 ar
   36    29    33 1
   37    30    31 ar
   38    31    26 ar
   39    32    41 1
   40    33    34 1
   41    34    35 1
   42    35    36 1
   43    36    37 1
   44    36    39 1
   45    37    38 1
   46    38    33 1
   47    41    42 1
@<TRIPOS>SUBSTRUCTURE
1   ****   1
